*HEADING
Portal frame (Problema 4): H=3.0m, L=5.0m
** Columns: 40x60cm, Beam: 25x50cm
** Generated by generate_portal_eq_ccx.py
*NODE
1, 0.00000000, 0.00000000, 0.00000000
2, 0.20000000, 0.00000000, 0.00000000
3, 0.40000000, 0.00000000, 0.00000000
4, 0.00000000, 0.18750000, 0.00000000
5, 0.20000000, 0.18750000, 0.00000000
6, 0.40000000, 0.18750000, 0.00000000
7, 0.00000000, 0.37500000, 0.00000000
8, 0.20000000, 0.37500000, 0.00000000
9, 0.40000000, 0.37500000, 0.00000000
10, 0.00000000, 0.56250000, 0.00000000
11, 0.20000000, 0.56250000, 0.00000000
12, 0.40000000, 0.56250000, 0.00000000
13, 0.00000000, 0.75000000, 0.00000000
14, 0.20000000, 0.75000000, 0.00000000
15, 0.40000000, 0.75000000, 0.00000000
16, 0.00000000, 0.93750000, 0.00000000
17, 0.20000000, 0.93750000, 0.00000000
18, 0.40000000, 0.93750000, 0.00000000
19, 0.00000000, 1.12500000, 0.00000000
20, 0.20000000, 1.12500000, 0.00000000
** ... 318 like lines cut
** SOLIDS
*ELEMENT, TYPE=C3D8R, ELSET=E_COL_L
1, 1, 2, 5, 4, 52, 53, 56, 55
2, 2, 3, 6, 5, 53, 54, 57, 56
3, 4, 5, 8, 7, 55, 56, 59, 58
4, 5, 6, 9, 8, 56, 57, 60, 59
5, 7, 8, 11, 10, 58, 59, 62, 61
6, 8, 9, 12, 11, 59, 60, 63, 62
7, 10, 11, 14, 13, 61, 62, 65, 64
8, 11, 12, 15, 14, 62, 63, 66, 65
9, 13, 14, 17, 16, 64, 65, 68, 67
10, 14, 15, 18, 17, 65, 66, 69, 68
11, 16, 17, 20, 19, 67, 68, 71, 70
12, 17, 18, 21, 20, 68, 69, 72, 71
13, 19, 20, 23, 22, 70, 71, 74, 73
14, 20, 21, 24, 23, 71, 72, 75, 74
15, 22, 23, 26, 25, 73, 74, 77, 76
16, 23, 24, 27, 26, 74, 75, 78, 77
17, 25, 26, 29, 28, 76, 77, 80, 79
18, 26, 27, 30, 29, 77, 78, 81, 80
19, 28, 29, 32, 31, 79, 80, 83, 82
20, 29, 30, 33, 32, 80, 81, 84, 83
** ... 12 like lines cut
*ELEMENT, TYPE=C3D8R, ELSET=E_COL_R
33, 103, 104, 107, 106, 154, 155, 158, 157
34, 104, 105, 108, 107, 155, 156, 159, 158
35, 106, 107, 110, 109, 157, 158, 161, 160
36, 107, 108, 111, 110, 158, 159, 162, 161
37, 109, 110, 113, 112, 160, 161, 164, 163
38, 110, 111, 114, 113, 161, 162, 165, 164
39, 112, 113, 116, 115, 163, 164, 167, 166
40, 113, 114, 117, 116, 164, 165, 168, 167
41, 115, 116, 119, 118, 166, 167, 170, 169
42, 116, 117, 120, 119, 167, 168, 171, 170
43, 118, 119, 122, 121, 169, 170, 173, 172
44, 119, 120, 123, 122, 170, 171, 174, 173
45, 121, 122, 125, 124, 172, 173, 176, 175
46, 122, 123, 126, 125, 173, 174, 177, 176
47, 124, 125, 128, 127, 175, 176, 179, 178
48, 125, 126, 129, 128, 176, 177, 180, 179
49, 127, 128, 131, 130, 178, 179, 182, 181
50, 128, 129, 132, 131, 179, 180, 183, 182
51, 130, 131, 134, 133, 181, 182, 185, 184
52, 131, 132, 135, 134, 182, 183, 186, 185
** ... 12 like lines cut
*ELEMENT, TYPE=C3D8R, ELSET=E_BEAM
65, 205, 206, 227, 226, 268, 269, 290, 289
66, 206, 207, 228, 227, 269, 270, 291, 290
67, 207, 208, 229, 228, 270, 271, 292, 291
68, 208, 209, 230, 229, 271, 272, 293, 292
69, 209, 210, 231, 230, 272, 273, 294, 293
70, 210, 211, 232, 231, 273, 274, 295, 294
71, 211, 212, 233, 232, 274, 275, 296, 295
72, 212, 213, 234, 233, 275, 276, 297, 296
73, 213, 214, 235, 234, 276, 277, 298, 297
74, 214, 215, 236, 235, 277, 278, 299, 298
75, 215, 216, 237, 236, 278, 279, 300, 299
76, 216, 217, 238, 237, 279, 280, 301, 300
77, 217, 218, 239, 238, 280, 281, 302, 301
78, 218, 219, 240, 239, 281, 282, 303, 302
79, 219, 220, 241, 240, 282, 283, 304, 303
80, 220, 221, 242, 241, 283, 284, 305, 304
81, 221, 222, 243, 242, 284, 285, 306, 305
82, 222, 223, 244, 243, 285, 286, 307, 306
83, 223, 224, 245, 244, 286, 287, 308, 307
84, 224, 225, 246, 245, 287, 288, 309, 308
** ... 20 like lines cut
** HINGE SPRINGS
*ELEMENT, TYPE=SPRING2, ELSET=E_HINGE
105, 332, 334
106, 336, 338
*NSET, NSET=BASE_ALL
1, 2, 3, 52, 53, 54, 103, 104, 105, 154, 155, 156
*NSET, NSET=ALL_SOLID
1, 2, 3, 4, 5, 6, 7, 8, 9, 10, 11, 12, 13, 14, 15, 16
17, 18, 19, 20, 21, 22, 23, 24, 25, 26, 27, 28, 29, 30, 31, 32
33, 34, 35, 36, 37, 38, 39, 40, 41, 42, 43, 44, 45, 46, 47, 48
49, 50, 51, 52, 53, 54, 55, 56, 57, 58, 59, 60, 61, 62, 63, 64
65, 66, 67, 68, 69, 70, 71, 72, 73, 74, 75, 76, 77, 78, 79, 80
81, 82, 83, 84, 85, 86, 87, 88, 89, 90, 91, 92, 93, 94, 95, 96
97, 98, 99, 100, 101, 102, 103, 104, 105, 106, 107, 108, 109, 110, 111, 112
113, 114, 115, 116, 117, 118, 119, 120, 121, 122, 123, 124, 125, 126, 127, 128
129, 130, 131, 132, 133, 134, 135, 136, 137, 138, 139, 140, 141, 142, 143, 144
145, 146, 147, 148, 149, 150, 151, 152, 153, 154, 155, 156, 157, 158, 159, 160
161, 162, 163, 164, 165, 166, 167, 168, 169, 170, 171, 172, 173, 174, 175, 176
177, 178, 179, 180, 181, 182, 183, 184, 185, 186, 187, 188, 189, 190, 191, 192
193, 194, 195, 196, 197, 198, 199, 200, 201, 202, 203, 204, 205, 206, 207, 208
209, 210, 211, 212, 213, 214, 215, 216, 217, 218, 219, 220, 221, 222, 223, 224
225, 226, 227, 228, 229, 230, 231, 232, 233, 234, 235, 236, 237, 238, 239, 240
241, 242, 243, 244, 245, 246, 247, 248, 249, 250, 251, 252, 253, 254, 255, 256
257, 258, 259, 260, 261, 262, 263, 264, 265, 266, 267, 268, 269, 270, 271, 272
273, 274, 275, 276, 277, 278, 279, 280, 281, 282, 283, 284, 285, 286, 287, 288
289, 290, 291, 292, 293, 294, 295, 296, 297, 298, 299, 300, 301, 302, 303, 304
305, 306, 307, 308, 309, 310, 311, 312, 313, 314, 315, 316, 317, 318, 319, 320
321, 322, 323, 324, 325, 326, 327, 328, 329, 330
*NSET, NSET=FACE_L_COL
45, 48, 51, 96, 99, 102
*NSET, NSET=FACE_L_BEM
205, 226, 247, 268, 289, 310
*NSET, NSET=FACE_R_COL
145, 148, 151, 196, 199, 202
*NSET, NSET=FACE_R_BEM
225, 246, 267, 288, 309, 330
*NSET, NSET=REF_L_COL
331
*NSET, NSET=ROT_L_COL
332
*NSET, NSET=REF_L_BEM
333
*NSET, NSET=ROT_L_BEM
334
*NSET, NSET=REF_R_COL
335
*NSET, NSET=ROT_R_COL
336
*NSET, NSET=REF_R_BEM
337
*NSET, NSET=ROT_R_BEM
338
*NSET, NSET=ROT_ALL
332, 334, 336, 338
*MATERIAL, NAME=MAT
*ELASTIC
2.500000e+10, 0.200000
*DENSITY
2400.000000
*SOLID SECTION, ELSET=E_COL_L, MATERIAL=MAT
*SOLID SECTION, ELSET=E_COL_R, MATERIAL=MAT
*SOLID SECTION, ELSET=E_BEAM,  MATERIAL=MAT
** RIGID BODIES ON JOINT FACES
*RIGID BODY, NSET=FACE_L_COL, REF NODE=331, ROT NODE=332
*RIGID BODY, NSET=FACE_L_BEM, REF NODE=333, ROT NODE=334
*RIGID BODY, NSET=FACE_R_COL, REF NODE=335, ROT NODE=336
*RIGID BODY, NSET=FACE_R_BEM, REF NODE=337, ROT NODE=338
*EQUATION
2
331, 1, 1.0, 333, 1, -1.0
*EQUATION
2
335, 1, 1.0, 337, 1, -1.0
*EQUATION
2
331, 2, 1.0, 333, 2, -1.0
*EQUATION
2
335, 2, 1.0, 337, 2, -1.0
*BOUNDARY
BASE_ALL, 1, 3, 0.
REF_L_COL, 3, 3, 0.
REF_L_BEM, 3, 3, 0.
REF_R_COL, 3, 3, 0.
REF_R_BEM, 3, 3, 0.
ROT_L_COL, 1, 2, 0.
ROT_L_BEM, 1, 2, 0.
ROT_R_COL, 1, 2, 0.
ROT_R_BEM, 1, 2, 0.
*SPRING, ELSET=E_HINGE, NONLINEAR
3, 3
0.00000000e+00, 0.00000000e+00
2.00000000e-03, 2.00000000e+05
2.00000000e-02, 2.36000000e+05
*AMPLITUDE, NAME=EQX
0.000000, 0.00000000e+00, 0.002500, 3.08139166e-02, 0.005000, 6.15971957e-02, 0.007500, 9.23192303e-02
0.010000, 1.22949476e-01, 0.012500, 1.53457477e-01, 0.015000, 1.83812905e-01, 0.017500, 2.13985583e-01
0.020000, 2.43945517e-01, 0.022500, 2.73662926e-01, 0.025000, 3.03108273e-01, 0.027500, 3.32252295e-01
0.030000, 3.61066032e-01, 0.032500, 3.89520853e-01, 0.035000, 4.17588490e-01, 0.037500, 4.45241061e-01
0.040000, 4.72451102e-01, 0.042500, 4.99191594e-01, 0.045000, 5.25435989e-01, 0.047500, 5.51158236e-01
0.050000, 5.76332807e-01, 0.052500, 6.00934725e-01, 0.055000, 6.24939590e-01, 0.057500, 6.48323596e-01
0.060000, 6.71063562e-01, 0.062500, 6.93136956e-01, 0.065000, 7.14521911e-01, 0.067500, 7.35197251e-01
0.070000, 7.55142512e-01, 0.072500, 7.74337964e-01, 0.075000, 7.92764625e-01, 0.077500, 8.10404289e-01
0.080000, 8.27239534e-01, 0.082500, 8.43253747e-01, 0.085000, 8.58431138e-01, 0.087500, 8.72756754e-01
0.090000, 8.86216498e-01, 0.092500, 8.98797137e-01, 0.095000, 9.10486323e-01, 0.097500, 9.21272597e-01
0.100000, 9.31145407e-01, 0.102500, 9.40095114e-01, 0.105000, 9.48113004e-01, 0.107500, 9.55191295e-01
0.110000, 9.61323147e-01, 0.112500, 9.66502666e-01, 0.115000, 9.70724910e-01, 0.117500, 9.73985896e-01
0.120000, 9.76282602e-01, 0.122500, 9.77612968e-01, 0.125000, 9.77975905e-01, 0.127500, 9.77371285e-01
0.130000, 9.75799950e-01, 0.132500, 9.73263708e-01, 0.135000, 9.69765330e-01, 0.137500, 9.65308547e-01
0.140000, 9.59898046e-01, 0.142500, 9.53539469e-01, 0.145000, 9.46239400e-01, 0.147500, 9.38005364e-01
0.150000, 9.28845816e-01, 0.152500, 9.18770134e-01, 0.155000, 9.07788607e-01, 0.157500, 8.95912429e-01
0.160000, 8.83153683e-01, 0.162500, 8.69525330e-01, 0.165000, 8.55041194e-01, 0.167500, 8.39715954e-01
0.170000, 8.23565121e-01, 0.172500, 8.06605028e-01, 0.175000, 7.88852810e-01, 0.177500, 7.70326388e-01
0.180000, 7.51044450e-01, 0.182500, 7.31026434e-01, 0.185000, 7.10292505e-01, 0.187500, 6.88863537e-01
0.190000, 6.66761090e-01, 0.192500, 6.44007391e-01, 0.195000, 6.20625307e-01, 0.197500, 5.96638327e-01
** ... 981 like lines cut
*STEP
*STATIC
*DLOAD
E_COL_L, GRAV, 9.81000000e+00, 0., -1., 0.
E_COL_R, GRAV, 9.81000000e+00, 0., -1., 0.
E_BEAM,  GRAV, 9.81000000e+00, 0., -1., 0.
*NODE PRINT, NSET=ROT_ALL
U
*NODE FILE
U
*EL FILE
S, E, ENER
*END STEP
*STEP, INC=4051
*DYNAMIC
0.002500000000, 10.000000001000, 0.002500000000, 0.002500000000
*DAMPING,ALPHA=0.00000000e+00,BETA=2.00000000e-04
*DLOAD
E_COL_L, GRAV, 9.81000000e+00, 0., -1., 0.
E_COL_R, GRAV, 9.81000000e+00, 0., -1., 0.
E_BEAM,  GRAV, 9.81000000e+00, 0., -1., 0.
E_COL_L, GRAV, 1.0, 1., 0., 0., EQX
E_COL_R, GRAV, 1.0, 1., 0., 0., EQX
E_BEAM,  GRAV, 1.0, 1., 0., 0., EQX
*NODE PRINT, NSET=ROT_ALL, FREQUENCY=20
U
*NODE FILE, FREQUENCY=20
U
*EL FILE, FREQUENCY=20
S, E
*END STEP
