**
**   Structure: air column (ideal gas) within solid
**   Test objective: ideal gas law as hyperelastic law 
**
*NODE, NSET=Nall
       1,1.000000000000e+00,0.000000000000e+00,0.000000000000e+00
       2,7.500000000000e-01,0.000000000000e+00,0.000000000000e+00
       3,7.500000000000e-01,-1.110223024625e-16,2.000000000000e+00
       4,1.000000000000e+00,0.000000000000e+00,2.000000000000e+00
       5,1.000000000000e+00,2.500000000000e-01,0.000000000000e+00
       6,7.500000000000e-01,2.500000000000e-01,0.000000000000e+00
       7,7.500000000000e-01,2.500000000000e-01,2.000000000000e+00
       8,1.000000000000e+00,2.500000000000e-01,2.000000000000e+00
       9,8.750000000000e-01,0.000000000000e+00,0.000000000000e+00
      10,7.500000000000e-01,0.000000000000e+00,1.000000000000e+00
      11,8.750000000000e-01,1.665334536938e-16,2.000000000000e+00
      12,1.000000000000e+00,0.000000000000e+00,1.000000000000e+00
      13,1.000000000000e+00,1.250000000000e-01,0.000000000000e+00
      14,7.500000000000e-01,1.250000000000e-01,-1.776356839400e-15
      15,7.500000000000e-01,1.250000000000e-01,2.000000000000e+00
      16,1.000000000000e+00,1.250000000000e-01,2.000000000000e+00
      17,8.750000000000e-01,2.500000000000e-01,-8.881784197001e-16
      18,7.500000000000e-01,2.500000000000e-01,1.000000000000e+00
      19,8.750000000000e-01,2.500000000000e-01,2.000000000000e+00
      20,1.000000000000e+00,2.500000000000e-01,1.000000000000e+00
** ... 405 like lines cut
*ELEMENT, TYPE=C3D20R, ELSET=Eall
     1,     1,     2,     3,     4,     5,     6,     7,     8,     9,    10,
          11,    12,    17,    18,    19,    20,    13,    14,    15,    16
     2,     4,     3,    21,    22,     8,     7,    23,    24,    11,    25,
          26,    27,    19,    30,    31,    32,    16,    15,    28,    29
     3,    22,    21,    33,    34,    24,    23,    35,    36,    26,    37,
          38,    39,    31,    42,    43,    44,    29,    28,    40,    41
     4,    34,    33,    45,    46,    36,    35,    47,    48,    38,    49,
          50,    51,    43,    54,    55,    56,    41,    40,    52,    53
     5,     5,     6,     7,     8,    57,    58,    59,    60,    17,    18,
          19,    20,    65,    66,    67,    68,    61,    62,    63,    64
     6,     8,     7,    23,    24,    60,    59,    69,    70,    19,    30,
          31,    32,    67,    73,    74,    75,    64,    63,    71,    72
     7,    24,    23,    35,    36,    70,    69,    76,    77,    31,    42,
          43,    44,    74,    80,    81,    82,    72,    71,    78,    79
     8,    36,    35,    47,    48,    77,    76,    83,    84,    43,    54,
          55,    56,    81,    87,    88,    89,    79,    78,    85,    86
     9,    57,    58,    59,    60,    90,    91,    92,    93,    65,    66,
          67,    68,    98,    99,   100,   101,    94,    95,    96,    97
    10,    60,    59,    69,    70,    93,    92,   102,   103,    67,    73,
          74,    75,   100,   106,   107,   108,    97,    96,   104,   105
** ... 108 like lines cut
** Names based on fixz
*NSET,NSET=Nfixz 
1, 
2, 
5, 
6, 
9, 
13, 
14, 
17, 
57, 
58, 
61, 
62, 
65, 
90, 
91, 
94, 
95, 
98, 
123, 
124, 
** ... 45 like lines cut
*BOUNDARY
336,1,3
1,2,3
Nfixz,3,3
** Names based on air
*ELSET,ELSET=Eair 
22, 
23, 
26, 
27, 
38, 
39, 
42, 
43, 
** Names based on solid
*ELSET,ELSET=Esolid 
1, 
2, 
3, 
4, 
5, 
6, 
7, 
8, 
9, 
10, 
11, 
12, 
13, 
14, 
15, 
16, 
17, 
18, 
19, 
20, 
** ... 36 like lines cut
*MATERIAL,NAME=SOLID
*ELASTIC
210000.e6,.3
*EXPANSION
12.E-6
*SOLID SECTION,ELSET=Esolid,MATERIAL=SOLID
*MATERIAL,NAME=IDEAL_GAS
*USER MATERIAL,CONSTANTS=1
287.058
*SOLID SECTION,ELSET=Eair,MATERIAL=IDEAL_GAS
*INITIAL CONDITIONS,TYPE=TEMPERATURE
Nall,300.
*STEP,NLGEOM
*STATIC
1.,1.
*TEMPERATURE
Nall,300.
*NODE FILE,FREQUENCY=100
U,NT
*EL FILE,FREQUENCY=100
S,NOE
*END STEP
*STEP,NLGEOM
*STATIC
.25,1.
*TEMPERATURE
Nall,400.
*END STEP
