**
**   Structure: cantilever beam.
**   Test objective: check the reaction forces in a node with
**                   a SPC in cylindrical coordinates
**
*HEADING
Model: beam     Date: 10-Mar-1998
*NODE
       1,0.000000000000e+00,8.535533905933e-01,6.066017177982e-02
       2,1.000000000000e+00,8.535533905933e-01,6.066017177982e-02
       3,1.000000000000e+00,1.560660171780e+00,-6.464466094067e-01
       4,0.000000000000e+00,1.560660171780e+00,-6.464466094067e-01
       5,0.000000000000e+00,6.510407640086e+00,5.717514421272e+00
       6,1.000000000000e+00,6.510407640086e+00,5.717514421272e+00
       7,1.000000000000e+00,7.217514421272e+00,5.010407640086e+00
       8,0.000000000000e+00,7.217514421272e+00,5.010407640086e+00
       9,2.500000000000e-01,8.535533905933e-01,6.066017177982e-02
      10,5.000000000000e-01,8.535533905933e-01,6.066017177982e-02
      11,7.500000000000e-01,8.535533905933e-01,6.066017177982e-02
      12,1.000000000000e+00,1.030330085890e+00,-1.161165235168e-01
      13,1.000000000000e+00,1.207106781187e+00,-2.928932188135e-01
      14,1.000000000000e+00,1.383883476483e+00,-4.696699141101e-01
      15,7.500000000000e-01,1.560660171780e+00,-6.464466094067e-01
      16,5.000000000000e-01,1.560660171780e+00,-6.464466094067e-01
      17,2.500000000000e-01,1.560660171780e+00,-6.464466094067e-01
      18,0.000000000000e+00,1.383883476483e+00,-4.696699141101e-01
      19,0.000000000000e+00,1.207106781187e+00,-2.928932188135e-01
      20,0.000000000000e+00,1.030330085890e+00,-1.161165235168e-01
** ... 241 like lines cut
*ELEMENT, TYPE=C3D20R   , ELSET=Eall
     1,     1,    10,    95,    19,    61,   105,   222,   192,     9,    93,
           94,    20,   104,   220,   221,   193,    62,   103,   219,   190
     2,    10,     2,    13,    95,   105,    34,   134,   222,    11,    12,
           96,    93,   106,   133,   223,   220,   103,    33,   132,   219
     3,    19,    95,    16,     4,   192,   222,   163,    79,    94,    97,
           17,    18,   221,   224,   164,   191,   190,   219,   161,    78
     4,    95,    13,     3,    16,   222,   134,    64,   163,    96,    14,
           15,    97,   223,   135,   162,   224,   219,   132,    63,   161
     5,    61,   105,   222,   192,    59,   109,   228,   196,   104,   220,
          221,   193,   108,   226,   227,   197,    60,   107,   225,   194
     6,   105,    34,   134,   222,   109,    36,   138,   228,   106,   133,
          223,   220,   110,   137,   229,   226,   107,    35,   136,   225
     7,   192,   222,   163,    79,   196,   228,   167,    81,   221,   224,
          164,   191,   227,   230,   168,   195,   194,   225,   165,    80
     8,   222,   134,    64,   163,   228,   138,    66,   167,   223,   135,
          162,   224,   229,   139,   166,   230,   225,   136,    65,   165
     9,    59,   109,   228,   196,    57,   113,   234,   200,   108,   226,
          227,   197,   112,   232,   233,   201,    58,   111,   231,   198
    10,   109,    36,   138,   228,   113,    38,   142,   234,   110,   137,
          229,   226,   114,   141,   235,   232,   111,    37,   140,   231
** ... 44 like lines cut
*NSET,NSET=N1
95,246,258,179,100
*TRANSFORM,TYPE=C,NSET=N1
0.,.5,-1.,1.,.5,-1.
*BOUNDARY
95,1,1
246,2,3
258,2,3
179,3,3
*MATERIAL,NAME=EL
*ELASTIC
  210000.0,        .3
*SOLID SECTION,ELSET=Eall,MATERIAL=EL
*STEP
*STATIC
*CLOAD
100,1,1.
*NODE PRINT,NSET=N1,GLOBAL=YES
U,RF
*END STEP
