**
**   Structure: cantilever beam.
**   Test objective: dynamic response to base motion;
**   	  	     with damping
**
*HEADING
Model: beam     Date: 14-Nov-2025
*NODE
         1,  1.0            ,  -1.5           ,  0.0            
         2,  0.75           ,  -1.5           ,  0.0            
         3,  0.5            ,  -1.5           ,  0.0            
         4,  0.25           ,  -1.5           ,  0.0            
         5,  0.0            ,  -1.5           ,  0.0            
         6,  0.0            ,  -1.5           ,  1.0            
         7,  0.0            ,  -1.5           ,  2.0            
         8,  0.0            ,  -1.5           ,  3.0            
         9,  0.0            ,  -1.5           ,  4.0            
        10,  0.0            ,  -1.5           ,  5.0            
        11,  0.0            ,  -1.5           ,  6.0            
        12,  0.0            ,  -1.5           ,  7.0            
        13,  0.0            ,  -1.5           ,  8.0            
        14,  0.0            ,  -1.5           ,  9.0            
        15,  0.0            ,  -1.5           ,  10.0           
        16,  0.0            ,  -1.5           ,  11.0           
        17,  0.0            ,  -1.5           ,  12.0           
        18,  0.0            ,  -1.5           ,  13.0           
        19,  0.0            ,  -1.5           ,  14.0           
        20,  0.0            ,  -1.5           ,  15.0           
** ... 751 like lines cut
*ELEMENT,TYPE=C3D20R
         1,        49,       197,       182,        47,       206,       207,       208,       209,
       196,       199,       181,        48,       214,       215,       216,
       217,       210,       211,       212,       213
         2,       206,       207,       208,       209,       218,       219,       220,       221,
       214,       215,       216,       217,       226,       227,       228,
       229,       222,       223,       224,       225
         3,       164,        83,        85,       110,       230,       231,       232,       233,
       165,        84,       111,       166,       238,       239,       240,
       241,       234,       235,       236,       237
         4,       230,       231,       232,       233,       242,       243,       244,       245,
       238,       239,       240,       241,       250,       251,       252,
       253,       246,       247,       248,       249
         5,       153,        87,        89,       149,       254,       255,       256,       257,
       154,        88,       150,       155,       262,       263,       264,
       265,       258,       259,       260,       261
         6,       254,       255,       256,       257,       266,       267,       268,       269,
       262,       263,       264,       265,       274,       275,       276,
       277,       270,       271,       272,       273
         7,        57,        59,        61,       202,       278,       279,       280,       281,
        58,        60,       203,       205,       286,       287,       288,
** ... 280 like lines cut
*NSET,NSET=NS_MOVE
         1,         2,         3,         4,         5,       304,       305,       308,
       309,       312,       316,       317,       320,       321,       324,       756,
       757,       759,       760,       761,       763
*NSET,NSET=N1
278
*ELSET,ELSET=EALL,GENERATE
1,100
*MATERIAL,NAME=EL
*ELASTIC
  210000.0 ,       .3
*DENSITY
7.8E-9
*SOLID SECTION,MATERIAL=EL,ELSET=EALL
*AMPLITUDE,NAME=A1
0.0000E+00, 0.00000000E+00 
2.0000E-07, 5.02443182E-02 
4.0000E-07, 1.00361715E-01 
6.0000E-07, 1.50225589E-01 
8.0000E-07, 1.99709981E-01 
1.0000E-06, 2.48689887E-01 
1.2000E-06, 2.97041582E-01 
1.4000E-06, 3.44642923E-01 
1.6000E-06, 3.91373667E-01 
1.8000E-06, 4.37115767E-01 
2.0000E-06, 4.81753674E-01 
2.2000E-06, 5.25174630E-01 
2.4000E-06, 5.67268949E-01 
2.6000E-06, 6.07930298E-01 
2.8000E-06, 6.47055962E-01 
3.0000E-06, 6.84547106E-01 
3.2000E-06, 7.20309025E-01 
3.4000E-06, 7.54251381E-01 
3.6000E-06, 7.86288432E-01 
3.8000E-06, 8.16339251E-01 
** ... 481 like lines cut
*STEP
*FREQUENCY,STORAGE=YES
6
*BOUNDARY
NS_MOVE,1,3
*END STEP
*STEP,INC=1000
*MODAL DYNAMIC
2.0E-7,1.0E-4
*MODAL DAMPING,RAYLEIGH
,,5.E-3,1.E-3
*BASE MOTION,DOF=2,AMPLITUDE=A1,TYPE=DISPLACEMENT
*NODE PRINT,NSET=N1,FREQUENCY=10
U
*END STEP

