**
** Structure: cantilever beam
** Test objective: reaction forces of 3D elements
**
*NODE,NSET=NALL
1, 0.00000000E+000, 5.00000000E+000, -5.00000000E+000
2, 0.00000000E+000, 5.00000000E+000, 5.00000000E+000
3, 1.00000000E+002, 5.00000000E+000, 5.00000000E+000
4, 1.00000000E+002, 5.00000000E+000, -5.00000000E+000
5, 0.00000000E+000, -5.00000000E+000, 5.00000000E+000
6, 1.00000000E+002, -5.00000000E+000, 5.00000000E+000
7, 0.00000000E+000, -5.00000000E+000, -5.00000000E+000
8, 1.00000000E+002, -5.00000000E+000, -5.00000000E+000
9, 0.00000000E+000, 5.00000000E+000, 1.40000000E-001
10, 9.33000000E+001, 5.00000000E+000, 5.00000000E+000
11, 8.43000000E+001, 5.00000000E+000, 5.00000000E+000
12, 7.42000000E+001, 5.00000000E+000, 5.00000000E+000
13, 6.41000000E+001, 5.00000000E+000, 5.00000000E+000
14, 5.39000000E+001, 5.00000000E+000, 5.00000000E+000
15, 4.38000000E+001, 5.00000000E+000, 5.00000000E+000
16, 3.36000000E+001, 5.00000000E+000, 5.00000000E+000
17, 2.35000000E+001, 5.00000000E+000, 5.00000000E+000
18, 1.36000000E+001, 5.00000000E+000, 5.00000000E+000
19, 5.60000000E+000, 5.00000000E+000, 5.00000000E+000
20, 1.00000000E+002, 5.00000000E+000, 1.40000000E-001
** ... 241 like lines cut
*ELEMENT, TYPE=C3D10, ELSET=EALL
1, 56, 4, 21, 20, 209, 108, 207, 213, 107, 106
2, 10, 42, 20, 3, 142, 215, 100, 98, 145, 99
3, 25, 26, 37, 15, 101, 228, 229, 80, 102, 129
4, 42, 6, 32, 57, 144, 143, 141, 219, 217, 230
5, 29, 28, 39, 51, 97, 231, 232, 203, 202, 174
6, 53, 7, 43, 58, 150, 149, 151, 233, 225, 224
7, 43, 41, 53, 58, 148, 184, 151, 224, 234, 233
8, 28, 38, 50, 27, 235, 171, 201, 96, 236, 200
9, 27, 15, 16, 38, 82, 81, 83, 236, 130, 132
10, 59, 41, 40, 18, 237, 137, 238, 239, 139, 138
11, 28, 16, 39, 38, 85, 133, 231, 235, 132, 131
12, 28, 29, 39, 17, 97, 232, 231, 86, 88, 135
13, 59, 40, 41, 53, 238, 137, 237, 240, 178, 184
14, 59, 19, 41, 18, 241, 146, 237, 239, 104, 139
15, 21, 33, 22, 45, 242, 243, 92, 189, 156, 190
16, 14, 35, 36, 24, 124, 123, 125, 77, 244, 245
17, 10, 57, 21, 20, 246, 247, 67, 100, 214, 106
18, 45, 33, 22, 46, 156, 243, 190, 155, 157, 191
19, 9, 2, 31, 19, 63, 109, 223, 65, 64, 110
20, 32, 54, 44, 57, 180, 179, 153, 230, 216, 248
** ... 68 like lines cut
*NSET, NSET=SUPPORT
1, 2, 5, 7, 9, 31, 43, 55, 58, 60, 63, 109, 111, 147, 149, 185,
187, 220, 221, 222, 223, 224, 225, 226, 227
*NSET, NSET=LOAD
3, 4, 6, 8, 20, 42, 54, 56, 57, 99, 107, 144, 145, 182, 183, 209,
210, 212, 213, 214, 215, 216, 217, 218, 219
*MATERIAL, NAME=M1
*ELASTIC
210000, 0.28
*SOLID SECTION, ELSET=EALL, MATERIAL=M1
*STEP
*STATIC
*BOUNDARY
SUPPORT, 1, 6, 0
*CLOAD
LOAD, 1, 1000
*NODE PRINT,NSET=NALL
U,RF,RR
*NODE FILE
U,RF,RR
*END STEP
