**
**   Structure: beam.
**   Test objective: sensitivity: von mises stress, ps1 and ps3
**                                w.r.t. coordinates.
**
**
*NODE, NSET=NALL
         5,  0.0            ,  -5.68434189E-14,  0.0            
         6,  1000.0         ,  -5.68434189E-14,  0.0            
         7,  2000.0         ,  -5.68434189E-14,  0.0            
         8,  3000.0         ,  -5.68434189E-14,  0.0            
         9,  4000.0         ,  -5.68434189E-14,  0.0            
        10,  5000.0         ,  -5.68434189E-14,  0.0            
        11,  6000.0         ,  -5.68434189E-14,  0.0            
        12,  7000.0         ,  -5.68434189E-14,  0.0            
        13,  8000.0         ,  -5.68434189E-14,  0.0            
        14,  9000.0         ,  -5.68434189E-14,  0.0            
        15,  10000.0        ,  -5.68434189E-14,  0.0            
        16,  11000.0        ,  -5.68434189E-14,  0.0            
        17,  12000.0        ,  -5.68434189E-14,  0.0            
        18,  13000.0        ,  -5.68434189E-14,  0.0            
        19,  14000.0        ,  -5.68434189E-14,  0.0            
        20,  15000.0        ,  -5.68434189E-14,  0.0            
        21,  16000.0        ,  -5.68434189E-14,  0.0            
        22,  17000.0        ,  -5.68434189E-14,  0.0            
        23,  18000.0        ,  -5.68434189E-14,  0.0            
        24,  19000.0        ,  -5.68434189E-14,  0.0            
** ... 106 like lines cut
*ELEMENT,TYPE=C3D8,ELSET=BEAM
        42,        26,        52,        24,        25,        71,        70,        72,
        73
        44,        52,        51,        23,        24,        70,        75,        76,
        72
        46,        51,        53,        22,        23,        75,        78,        79,
        76
        48,        53,        54,        21,        22,        78,        81,        82,
        79
        50,        54,        50,        20,        21,        81,        84,        85,
        82
        53,        18,        19,        56,        55,        90,        91,        87,
        86
        54,        19,        20,        50,        56,        91,        85,        84,
        87
        56,        55,        57,        17,        18,        86,        93,        94,
        90
        59,        15,        16,        58,        49,        99,       100,        96,
        95
        60,        16,        17,        57,        58,       100,        94,        93,
        96
** ... 60 like lines cut
*NSET, NSET=VARIABLES
5, 
6, 
7, 
8, 
9, 
10, 
11, 
12, 
13, 
14, 
15, 
16, 
17, 
18, 
19, 
20, 
21, 
22, 
23, 
24, 
** ... 64 like lines cut
*MATERIAL,NAME=STEEL
*ELASTIC,TYPE=ISO
210000,0.0,293.15
*DENSITY
8.195e-09
*SOLID SECTION, ELSET=BEAM, MATERIAL=STEEL
*INITIAL CONDITIONS, TYPE=TEMPERATURE
NALL, 293.15
**DEFINITION OF DESIGN VARIABLES
*DESIGN VARIABLES, TYPE=COORDINATE
VARIABLES
**
*STEP, NLGEOM=NO
*STATIC
   0.4, 1.0
*TEMPERATURE
NALL, 293.15
*CLOAD
        71,3,-3250000.0         
        73,3,-3250000.0         
*BOUNDARY
  5,1,2,0.0
 48,1,2,0.0
129,1,3,0.0
130,1,3,0.0
192,1,2,0.0
193,1,2,0.0
*OUTPUT, FIELD, FREQ=10
*NODE FILE
U
*EL FILE
S,E
*END STEP
**
*STEP, NLGEOM=NO
*SENSITIVITY
**
*DESIGN RESPONSE, NAME=MISESSTRESS_RESP
MISESSTRESS, VARIABLES, 10.0, 150.0
**
*DESIGN RESPONSE, NAME=PS1STRESS_RESP
PS1STRESS, VARIABLES,   10.0, 150.0
**
*DESIGN RESPONSE, NAME=PS3STRESS_RESP
PS3STRESS, VARIABLES,   10.0, -150.0
**
*FILTER,TYPE=LIN,EDGEPRESERVATION=YES,DIRECTIONWEIGHTING=NO,BOUNDARYWEIGHTING=NO
14.5
**
*OUTPUT, FIELD, FREQ=1
*NODEFILE
SEN
*END STEP
