**
**   Structure: liquid network.
**   Test objective: branch split (Idelchik1)
**
*Node,NSET=NALL
1, 0.09e4, 0., 0.
2, 0.10e4, 0., 0.
3, 0.15e4, 0., 0.
4, 0.20e4, 0., 0.
5, 0.25e4, 0., 0.
6, 0.30e4, 0., 0.
7, 0.31e4, 0., 0.
8, 0.20e4, 0.05e4, 0.
9, 0.20e4, 0.10e4, 0.
10, 0.20e4, 0.11e4, 0.
*Element, type=D, Elset=EALL
1, 0, 1, 2
2, 2, 3, 4
3, 4, 5, 6
4, 6, 7, 0
5, 4, 8, 9
6, 9,10, 0
*Elset, elset=Pipe
2
*Elset, elset=Branch
3,5
*Elset, elset=INOUT
1,4,6
*MATERIAL,NAME=WATER
*DENSITY
1000.
*FLUID CONSTANTS
**Cp Eta Temp
4217.,1750.E-6, 273.
*FLUID SECTION,ELSET=InOut,TYPE=PIPE INOUT,MATERIAL=WATER, LIQUID
*FLUID SECTION,ELSET=Pipe,TYPE=PIPE MANNING,MATERIAL=WATER
0.008,0.02523,0.015
*FLUID SECTION,MATERIAL=WATER, LIQUID, ELSET=BRANCH,TYPE=BRANCH SPLIT IDELCHIK1
2, 3, 5, 0.008, 0.008, 0.002, 0, 1
0.101, 0.0505, 0, 0, 1, 1, 0
*INITIAL CONDITIONS,TYPE=TOTAL PRESSURE
2, 3E5
4, 2E5
*INITIAL CONDITIONS,TYPE=MASS FLOW
1,1.
7,.5
10,.5
*STEP,INC=1
*HEAT TRANSFER,STEADY STATE
1.,1.
*DLOAD
EALL,GRAV,9.81,0.,0.,-1.
*BOUNDARY,MASS FLOW
1, 1,1, 1.0
*BOUNDARY
6, 2,2, 1E5
9, 2,2, 1E5
*NODE PRINT,NSET=NALL
U,
*NODE PRINT,NSET=NALL
MF,PN
*END STEP

