**
**   Structure: channel connecting two reservoirs.
**   Test objective: local contraction, backwater curve
**
*NODE,NSET=NALL
1,0.,0.,0.
2,0.,0.,0.
4,0.,0.,0.
6,.1,0.,0.
7,12.05,0.,-0.05975
8,24.,0.,-0.1195
9,26.5,0.,-0.1195
10,29.,0.,-0.1195
11,31.,0.,-0.1295
12,33.,0.,-0.1395
13,35.5,0.,-0.1395
14,38.,0.,-0.1395
15,49.95,0.,-0.19925
16,61.9,0.,-0.259
17,61.95,0.,-0.259
18,62.,0.,-0.259
19,62.,0.,-0.259
*ELEMENT,TYPE=D,ELSET=EALL
1,0,1,2
2,2,4,6
4,6,7,8
5,8,9,10
6,10,11,12
7,12,13,14
8,14,15,16
9,16,17,18
10,18,19,0
*MATERIAL,NAME=WATER
*DENSITY
1000.
*FLUID CONSTANTS
4217.,1750.E-6,273.
*ELSET,ELSET=E1
1,10
*ELSET,ELSET=E2
2
*ELSET,ELSET=E4
4
*ELSET,ELSET=E5
5
*ELSET,ELSET=E6
6
*ELSET,ELSET=E7
7
*ELSET,ELSET=E8
8
*ELSET,ELSET=E9
9
*FLUID SECTION,ELSET=E1,TYPE=CHANNEL INOUT,MATERIAL=WATER
*FLUID SECTION,ELSET=E2,TYPE=CHANNEL SLUICE GATE,MANNING,MATERIAL=WATER
10.,0.,0.1,0.005,0.01,0.8
*FLUID SECTION,ELSET=E4,TYPE=CHANNEL STRAIGHT,MANNING,MATERIAL=WATER
10.,0.,23.9,0.005,0.01
*FLUID SECTION,ELSET=E5,TYPE=CHANNEL CONTRACTION,MATERIAL=WATER
10.,0.,9.,0.,0.,0.,0.005
*FLUID SECTION,ELSET=E6,TYPE=CHANNEL STRAIGHT,MANNING,MATERIAL=WATER
9.,0.,4.,0.005,0.01
*FLUID SECTION,ELSET=E7,TYPE=CHANNEL ENLARGEMENT,MATERIAL=WATER
9.,0.,10.,0.,0.,0.,0.005
*FLUID SECTION,ELSET=E8,TYPE=CHANNEL STRAIGHT,MANNING,MATERIAL=WATER
10.,0.,23.9,0.005,0.01
*FLUID SECTION,ELSET=E9,TYPE=CHANNEL RESERVOIR,MANNING,MATERIAL=WATER
10.,0.,0.1,0.005,0.01
*BOUNDARY
18,2,2,3.8
*BOUNDARY,MASS FLOW
1,1,1,60000.
*STEP
*HEAT TRANSFER,STEADY STATE
*DLOAD
EALL,GRAV,9.81,0.,0.,-1.
*NODE PRINT,NSET=NALL
U,MF,PN
*END STEP

