**
**   Structure: channel connecting two reservoirs.
**   Test objective: steep slope, frontwater - jump - 
**                   backwater curve
**   Use of the shallow water equations (CFD-CBS)
**
*NODE, NSET=Nall
       1,0.000000000000e+00,1.000000000000e+01,8.000000000000e-01
       2,0.000000000000e+00,1.000000000000e+01,0.000000000000e+00
       3,1.250000000000e+00,1.000000000000e+01,-6.250000000000e-03
       4,1.250000000000e+00,1.000000000000e+01,8.000000000000e-01
       5,0.000000000000e+00,0.000000000000e+00,8.000000000000e-01
       6,0.000000000000e+00,0.000000000000e+00,0.000000000000e+00
       7,1.250000000000e+00,0.000000000000e+00,-6.250000000000e-03
       8,1.250000000000e+00,0.000000000000e+00,8.000000000000e-01
       9,2.500000000000e+00,1.000000000000e+01,-1.250000000000e-02
      10,2.500000000000e+00,1.000000000000e+01,8.000000000000e-01
      11,2.500000000000e+00,0.000000000000e+00,-1.250000000000e-02
      12,2.500000000000e+00,0.000000000000e+00,8.000000000000e-01
      13,3.750000000000e+00,1.000000000000e+01,-1.875000000000e-02
      14,3.750000000000e+00,1.000000000000e+01,8.000000000000e-01
      15,3.750000000000e+00,0.000000000000e+00,-1.875000000000e-02
      16,3.750000000000e+00,0.000000000000e+00,8.000000000000e-01
      17,5.000000000000e+00,1.000000000000e+01,-2.500000000000e-02
      18,5.000000000000e+00,1.000000000000e+01,8.000000000000e-01
      19,5.000000000000e+00,0.000000000000e+00,-2.500000000000e-02
      20,5.000000000000e+00,0.000000000000e+00,8.000000000000e-01
** ... 144 like lines cut
*ELEMENT, TYPE=F3D8, ELSET=Eall
     1,     1,     2,     3,     4,     5,     6,     7,     8
     2,     4,     3,     9,    10,     8,     7,    11,    12
     3,    10,     9,    13,    14,    12,    11,    15,    16
     4,    14,    13,    17,    18,    16,    15,    19,    20
     5,    18,    17,    21,    22,    20,    19,    23,    24
     6,    22,    21,    25,    26,    24,    23,    27,    28
     7,    26,    25,    29,    30,    28,    27,    31,    32
     8,    30,    29,    33,    34,    32,    31,    35,    36
     9,    34,    33,    37,    38,    36,    35,    39,    40
    10,    38,    37,    41,    42,    40,    39,    43,    44
    11,    42,    41,    45,    46,    44,    43,    47,    48
    12,    46,    45,    49,    50,    48,    47,    51,    52
    13,    50,    49,    53,    54,    52,    51,    55,    56
    14,    54,    53,    57,    58,    56,    55,    59,    60
    15,    58,    57,    61,    62,    60,    59,    63,    64
    16,    62,    61,    65,    66,    64,    63,    67,    68
    17,    66,    65,    69,    70,    68,    67,    71,    72
    18,    70,    69,    73,    74,    72,    71,    75,    76
    19,    74,    73,    77,    78,    76,    75,    79,    80
    20,    78,    77,    81,    82,    80,    79,    83,    84
** ... 20 like lines cut
** Names based on in
*NSET,NSET=Nin 
1, 
2, 
5, 
6, 
** Names based on out
*NSET,NSET=Nout 
161, 
162, 
163, 
164, 
** Names based on wall
*NSET,NSET=Nwall 
3, 
4, 
7, 
8, 
9, 
10, 
11, 
12, 
13, 
14, 
15, 
16, 
17, 
18, 
19, 
20, 
21, 
22, 
23, 
24, 
** ... 136 like lines cut
** Names based on out
*NSET,NSET=N1
8, 
12, 
16, 
20, 
24, 
28, 
32, 
36, 
40, 
44, 
48, 
52, 
56, 
60, 
64, 
68, 
72, 
76, 
80, 
84, 
** ... 19 like lines cut
*MATERIAL,NAME=WATER
*CONDUCTIVITY
0.
*FLUID CONSTANTS
4217.,0.,293.
*SOLID SECTION,ELSET=Eall,MATERIAL=WATER
*PHYSICAL CONSTANTS,ABSOLUTE ZERO=0.
*INITIAL CONDITIONS,TYPE=FLUID VELOCITY
Nall,1,7.5
Nall,2,0.
Nall,3,0.
*INITIAL CONDITIONS,TYPE=PRESSURE
Nall,0.
*INITIAL CONDITIONS,TYPE=TEMPERATURE
Nall,293.
**
*STEP,INCF=3500,SHOCK SMOOTHING=0.1
*CFD,STEADY STATE,SHALLOW WATER
1.,1.,,,5.
*BOUNDARY
Nall,3,3,0.
Nin,1,1,7.5
Nin,2,2,0.
Nin,8,8,0.
Nin,11,11,293.
** alternative reservoir boundary conditions are preceded by **
**Nout,8,8,-4.1815 steep slope, frontwater curve
**Nout,8,8,7.1490 steep slope, frontwater curve, jump in the reservoir
Nout,8,8,30.3497
**Nout,8,8,65.4204 steep slope, backwater curve
Nwall,2,2,0.
*DLOAD
Eall,GRAV,9.81,0.,0.,-1.
*DFLUX
** DFlux based on wall
2, S1, 0.000000e+00
2, S4, 0.000000e+00
2, S6, 0.000000e+00
2, S2, 0.000000e+00
3, S1, 0.000000e+00
3, S4, 0.000000e+00
3, S6, 0.000000e+00
3, S2, 0.000000e+00
4, S1, 0.000000e+00
4, S4, 0.000000e+00
4, S6, 0.000000e+00
4, S2, 0.000000e+00
5, S1, 0.000000e+00
5, S4, 0.000000e+00
5, S6, 0.000000e+00
5, S2, 0.000000e+00
6, S1, 0.000000e+00
6, S4, 0.000000e+00
6, S6, 0.000000e+00
6, S2, 0.000000e+00
** ... 132 like lines cut
** DFlux based on bottom
2, S4, 0.000000e+00
3, S4, 0.000000e+00
4, S4, 0.000000e+00
5, S4, 0.000000e+00
6, S4, 0.000000e+00
7, S4, 0.000000e+00
8, S4, 0.000000e+00
9, S4, 0.000000e+00
10, S4, 0.000000e+00
11, S4, 0.000000e+00
12, S4, 0.000000e+00
13, S4, 0.000000e+00
14, S4, 0.000000e+00
15, S4, 0.000000e+00
16, S4, 0.000000e+00
17, S4, 0.000000e+00
18, S4, 0.000000e+00
19, S4, 0.000000e+00
20, S4, 0.000000e+00
21, S4, 0.000000e+00
** ... 18 like lines cut
** DFlux based on surface
2, S6, 0.000000e+00
3, S6, 0.000000e+00
4, S6, 0.000000e+00
5, S6, 0.000000e+00
6, S6, 0.000000e+00
7, S6, 0.000000e+00
8, S6, 0.000000e+00
9, S6, 0.000000e+00
10, S6, 0.000000e+00
11, S6, 0.000000e+00
12, S6, 0.000000e+00
13, S6, 0.000000e+00
14, S6, 0.000000e+00
15, S6, 0.000000e+00
16, S6, 0.000000e+00
17, S6, 0.000000e+00
18, S6, 0.000000e+00
19, S6, 0.000000e+00
20, S6, 0.000000e+00
21, S6, 0.000000e+00
** ... 18 like lines cut
*NODE PRINT,FREQUENCYF=3500,NSET=N1
VF,DEPF,TSF
*END STEP
