**
**   Structure: channel connecting two reservoirs.
**   Test objective: weir
**
*NODE,NSET=NALL
1,0.,0.,0.
2,0.,0.,0.
3,0.05,0.,0.
4,0.1,0.,0.
5,0.6,0.,-0.5
6,1.1,0.,-1.
7,25.,0.,-1.1245
8,50.9,0.,-1.249
9,50.95,0.,-1.249
10,51.,0.,-1.249
11,51.,0.,-1.249
12,1.1,0.,-1.
13,1.1,0.,-1.
*ELEMENT,TYPE=D,ELSET=EALL
1,0,1,2
2,2,3,4
3,4,5,6
4,6,12,13
5,13,7,8
6,8,9,10
7,10,11,0
*MATERIAL,NAME=WATER
*DENSITY
1000.
*FLUID CONSTANTS
4217.,1750.E-6,273.
*ELSET,ELSET=E1
1,7
*ELSET,ELSET=E2
2
*ELSET,ELSET=E3
3
*ELSET,ELSET=E4
5
*ELSET,ELSET=E5
6
*ELSET,ELSET=E6
4
*FLUID SECTION,ELSET=E1,TYPE=CHANNEL INOUT,MATERIAL=WATER
*FLUID SECTION,ELSET=E2,TYPE=CHANNEL WEIR,MANNING,MATERIAL=WATER
10.,0.,1.414,0.707,0.01,1.,1.837
*FLUID SECTION,ELSET=E3,TYPE=CHANNEL STRAIGHT,MANNING,MATERIAL=WATER
10.,0.,1.414,0.707,0.01
*FLUID SECTION,ELSET=E6,TYPE=CHANNEL DISCONTINUOUS SLOPE,MATERIAL=WATER
10.,0.,0.,0.707,0.005
*FLUID SECTION,ELSET=E4,TYPE=CHANNEL STRAIGHT,MANNING,MATERIAL=WATER
10.,0.,49.8,0.005,0.01
*FLUID SECTION,ELSET=E5,TYPE=CHANNEL RESERVOIR,MANNING,MATERIAL=WATER
10.,0.,0.1,0.005,0.01
*BOUNDARY
10,2,2,0.5
*BOUNDARY,MASS FLOW
1,1,1,60000.
*STEP
*HEAT TRANSFER,STEADY STATE
*DLOAD
EALL,GRAV,9.81,0.,0.,-1.
*NODE PRINT,NSET=NALL
U,MF,PN
*END STEP

