**
**   Structure: channel connecting two reservoirs.
**   Test objective: mild slope, incomplete inflexion,
**                   backwater curve
**
*NODE,NSET=NALL
1,0.,0.,0.
2,0.,0.,0.
4,0.05,0.,0.
6,.1,0.,0.
7,15.,0.,-0.1341
8,29.9,0.,-0.02682
9,29.95,0.,-0.02682
10,30.,0.,-0.02682
11,30.,0.,0.
*ELEMENT,TYPE=D,ELSET=EALL
1,0,1,2
2,2,4,6
4,6,7,8
5,8,9,10
6,10,11,0
*MATERIAL,NAME=WATER
*DENSITY
1000.
*FLUID CONSTANTS
4217.,1750.E-6,273.
*ELSET,ELSET=E1
1,6
*ELSET,ELSET=E2
2
*ELSET,ELSET=E4
4
*ELSET,ELSET=E5
5
*FLUID SECTION,ELSET=E1,TYPE=CHANNEL INOUT,MATERIAL=WATER
*FLUID SECTION,ELSET=E2,TYPE=CHANNEL SLUICE GATE,MANNING,MATERIAL=WATER
12.,0.,0.1,0.0009,0.02,2.5
*FLUID SECTION,ELSET=E4,TYPE=CHANNEL STRAIGHT,MANNING,MATERIAL=WATER
12.,0.,29.8,0.0009,0.02
*FLUID SECTION,ELSET=E5,TYPE=CHANNEL RESERVOIR,MANNING,MATERIAL=WATER
12.,0.,0.1,0.0009,0.02
*BOUNDARY
10,2,2,2.0
*BOUNDARY,MASS FLOW
1,1,1,50000.
*STEP
*HEAT TRANSFER,STEADY STATE
*DLOAD
EALL,GRAV,9.81,0.,0.,-1.
*NODE PRINT,NSET=NALL
U,MF,PN
*END STEP

