**
**   Structure: two joining channels.
**   Test objective: frontwater curve in one channel,
**                   backwater curve in the other channel
**
*NODE,NSET=NALL
1,0.,0.,0.
2,0.,0.,0.
3,0.05,0.,0.
4,.1,0.,0.
5,12.45,0.,-0.06175
6,25.,0.,-0.1245
7,25.05,0.,-0.12475
8,25.1,0.,-0.125
9,25.1,-25.1,0.
10,25.1,-25.1,0.
11,25.1,-25.05,0.
12,25.1,-25.,0.
13,25.1,-12.65,-0.06175
14,25.1,-0.1,-0.1245
15,25.1,-0.05,-0.12475
16,25.15,0.,-0.12525
17,25.2,0.,-0.1255
18,37.65,0.,-0.18775
19,50.1,0.,-0.25
20,50.15,0.,-0.25
21,50.2,0.,-0.25
22,50.2,0.,-0.25
*ELEMENT,TYPE=D,ELSET=EALL
1,0,1,2
2,2,3,4
3,4,5,6
4,6,7,8
5,0,9,10
6,10,11,12
7,12,13,14
8,14,15,8
9,8,16,17
10,17,18,19
11,19,20,21
12,21,22,0
*MATERIAL,NAME=WATER
*DENSITY
1000.
*FLUID CONSTANTS
4217.,1750.E-6,273.
*ELSET,ELSET=E1
1,5,12
*ELSET,ELSET=E2
2,6
*ELSET,ELSET=E3
4,8
*ELSET,ELSET=E4
3
*ELSET,ELSET=E5
11
*ELSET,ELSET=E6
9
*ELSET,ELSET=E7
10
*ELSET,ELSET=E8
7
*FLUID SECTION,ELSET=E1,TYPE=CHANNEL INOUT,MATERIAL=WATER
*FLUID SECTION,ELSET=E2,TYPE=CHANNEL SLUICE GATE,MANNING,MATERIAL=WATER
5.,0.,0.1,0.005,0.01,0.8
*FLUID SECTION,ELSET=E3,TYPE=CHANNEL STRAIGHT,MANNING,MATERIAL=WATER
5.,0.,0.1,0.005,0.01
*FLUID SECTION,ELSET=E4,TYPE=CHANNEL STRAIGHT,MANNING,MATERIAL=WATER
5.,0.,24.9,0.005,0.03
*FLUID SECTION,ELSET=E5,TYPE=CHANNEL RESERVOIR,MANNING,MATERIAL=WATER
5.5,0.,0.1,0.005,0.01
*FLUID SECTION,ELSET=E6,TYPE=CHANNEL STRAIGHT,MANNING,MATERIAL=WATER
5.5,0.,0.1,0.005,0.01
*FLUID SECTION,ELSET=E7,TYPE=CHANNEL STRAIGHT,MANNING,MATERIAL=WATER
5.5,0.,24.9,0.005,0.01
*FLUID SECTION,ELSET=E8,TYPE=CHANNEL STRAIGHT,MANNING,MATERIAL=WATER
5.,0.,24.9,0.005,0.01
*BOUNDARY
21,2,2,0.5
*BOUNDARY,MASS FLOW
1,1,1,30000.
9,1,1,3000.
*STEP
*HEAT TRANSFER,STEADY STATE
*DLOAD
EALL,GRAV,9.81,0.,0.,-1.
*NODE PRINT,NSET=NALL
U,MF,PN
*END STEP

