**
**   Structure: channel connecting two reservoirs.
**   Test objective: inflow AND outflow along the channel;
**                   thermal calculation included.
**
*NODE,NSET=NALL
1,-0.05,0.,0.
2,0.,0.,0.
4,.05,0.,0.
6,.1,0.,0.
7,12.05,0.,-0.05975
8,24.,0.,-0.1195
9,26.5,0.,-0.1195
10,29.,0.,-0.1195
11,31.,0.,-0.1295
12,33.,0.,-0.1395
13,35.5,0.,-0.1395
14,38.,0.,-0.1395
15,49.95,0.,-0.19925
16,61.9,0.,-0.259
17,61.95,0.,-0.259
18,62.,0.,-0.259
19,62.05,0.,-0.259
20,24.,5.,-0.1195
21,29.,-5.,-0.1195
22,33.,5.,-0.1395
23,38.,-5.,-0.1395
*ELEMENT,TYPE=D,ELSET=EALL
1,0,1,2
2,2,4,6
4,6,7,8
5,8,9,10
6,10,11,12
7,12,13,14
8,14,15,16
9,16,17,18
10,18,19,0
11,0,20,8
12,0,21,10
13,0,22,12
14,0,23,14
*MATERIAL,NAME=WATER
*DENSITY
1000.
*FLUID CONSTANTS
4217.,1750.E-6,273.
*ELSET,ELSET=E1
1,10,11,12,13,14
*ELSET,ELSET=E2
2
*ELSET,ELSET=E4
4,5,6,7,8
*ELSET,ELSET=E9
9
*FLUID SECTION,ELSET=E1,TYPE=CHANNEL INOUT,MATERIAL=WATER
*FLUID SECTION,ELSET=E2,TYPE=CHANNEL SLUICE GATE,MANNING,MATERIAL=WATER
10.,0.,0.1,0.005,0.01,0.8
*FLUID SECTION,ELSET=E4,TYPE=CHANNEL STRAIGHT,MANNING,MATERIAL=WATER
10.,0.,-1.,0.005,0.01
*FLUID SECTION,ELSET=E9,TYPE=CHANNEL RESERVOIR,MANNING,MATERIAL=WATER
10.,0.,0.1,0.005,0.01
*PHYSICAL CONSTANTS,ABSOLUTE ZERO=-273.15,STEFAN BOLTZMANN=5.669E-8
*STEP
*HEAT TRANSFER,STEADY STATE
*DLOAD
EALL,GRAV,9.81,0.,0.,-1.
*BOUNDARY
2,0,0,20.
20,0,0,20.
21,0,0,20.
22,0,0,100.
23,0,0,20.
18,2,2,0.5
*BOUNDARY,MASS FLOW
1,1,1,60000.
20,1,1,-20000.
21,1,1,0.
22,1,1,20000.
23,1,1,0.
*NODE PRINT,NSET=NALL
U,MF,PN,NT
*END STEP
