**
**   Structure: two cubes on top of each other in contact.
**   Test objective: One element is deleted without
**                   changing the contact definition.
**                   Example was provided by Frank Ebing
**
*Heading
Unit system: MM_TON_S_C
*Node
1, 0.00000000E+000, 0.00000000E+000, 1.00000000E+001
2, 0.00000000E+000, 0.00000000E+000, 2.00000000E+001
3, 0.00000000E+000, 1.00000000E+001, 1.00000000E+001
4, 0.00000000E+000, 1.00000000E+001, 2.00000000E+001
5, 1.00000000E+001, 0.00000000E+000, 1.00000000E+001
6, 1.00000000E+001, 0.00000000E+000, 2.00000000E+001
7, 1.00000000E+001, 1.00000000E+001, 1.00000000E+001
8, 1.00000000E+001, 1.00000000E+001, 2.00000000E+001
9, 0.00000000E+000, 0.00000000E+000, 1.50000000E+001
10, 0.00000000E+000, 5.00000000E+000, 2.00000000E+001
11, 0.00000000E+000, 5.00000000E+000, 1.50000000E+001
12, 0.00000000E+000, 5.00000000E+000, 1.00000000E+001
13, 0.00000000E+000, 1.00000000E+001, 1.50000000E+001
14, 1.00000000E+001, 0.00000000E+000, 1.50000000E+001
15, 1.00000000E+001, 5.00000000E+000, 1.00000000E+001
16, 1.00000000E+001, 5.00000000E+000, 1.50000000E+001
17, 1.00000000E+001, 1.00000000E+001, 1.50000000E+001
18, 1.00000000E+001, 5.00000000E+000, 2.00000000E+001
19, 5.00000000E+000, 0.00000000E+000, 1.00000000E+001
20, 5.00000000E+000, 0.00000000E+000, 1.50000000E+001
** ... 32 like lines cut
*Element, Type=C3D10, Elset=Solid_part-1
1, 4, 6, 7, 8, 26, 16, 23, 24, 18, 17
2, 6, 4, 7, 1, 26, 23, 16, 20, 11, 25
3, 7, 1, 4, 3, 25, 11, 23, 22, 12, 13
4, 7, 1, 5, 6, 25, 19, 15, 16, 20, 14
5, 2, 1, 4, 6, 9, 11, 10, 21, 20, 26
*Element, Type=C3D10, Elset=Solid_part-2
6, 30, 32, 33, 34, 52, 42, 49, 50, 44, 43
7, 32, 30, 33, 27, 52, 49, 42, 46, 37, 51
8, 33, 27, 30, 29, 51, 37, 49, 48, 38, 39
9, 33, 27, 31, 32, 51, 45, 41, 42, 46, 40
10, 28, 27, 30, 32, 35, 37, 36, 47, 46, 52
*Nset, Nset=Internal-1_master
1, 3, 5, 7, 12, 15, 19, 22, 25
*Nset, Nset=Internal-1_slave
28, 30, 32, 34, 36, 44, 47, 50, 52
*Nset, Nset=Internal_Selection-1_Fixed-1
27, 29, 31, 33, 38, 41, 45, 48, 51
*Elset, Elset=Internal-1_master_S2
3
*Elset, Elset=Internal-1_master_S1
4
*Elset, Elset=Internal-1_slave_S2
6
*Elset, Elset=Internal-1_slave_S4
10
*Elset, Elset=Internal_Selection-1_Solid_Section-1
Solid_part-1,
Solid_part-2
*Elset, Elset=Internal_Selection-1_Gravity-1
Solid_part-1,
Solid_part-2
*Elset, Elset=Set-1
1, 2, 3, 4, 5
*Surface, Name=master, Type=Element
Internal-1_master_S2, S2
Internal-1_master_S1, S1
*Surface, Name=slave, Type=Element
Internal-1_slave_S2, S2
Internal-1_slave_S4, S4
*Material, Name=S235
*Density
7.8E-09
*Elastic
210000, 0.28
*Expansion, Zero=20
1.1E-05
*Solid section, Elset=Internal_Selection-1_Solid_Section-1, Material=S235
*Surface interaction, Name=Surface_Interaction-1
*Surface behavior, Pressure-overclosure=Hard
*Friction
0.1
*Contact pair, Interaction=Surface_Interaction-1, Type=Surface to surface
slave, master
**
*Step, Inc=100
*Static
1, 1, 
*Boundary
Internal_Selection-1_Fixed-1, 1, 6, 0
*Dload
Internal_Selection-1_Gravity-1, Grav, 9810, 0, 0, -1
*Node file
U
*El file
S,NOE
*Model Change, Type=Element, Remove
Set-1
*end step
