**
**   Structure: cube.
**   Test objective: interface loading mit mesh refinement.
**
*NODE, NSET=Nall
       1,5.000000000000e-01,0.000000000000e+00,0.000000000000e+00
       2,7.500000000000e-01,0.000000000000e+00,0.000000000000e+00
       3,4.999999994939e-01,2.783785801556e-01,-7.450580707946e-09
       4,6.250000000000e-01,0.000000000000e+00,0.000000000000e+00
       5,6.249999997470e-01,1.391892900778e-01,-3.725290409484e-09
       6,4.999999997470e-01,1.391892900778e-01,-3.725290409484e-09
       7,0.000000000000e+00,2.500000000000e-01,0.000000000000e+00
       8,0.000000000000e+00,0.000000000000e+00,0.000000000000e+00
       9,2.500000000000e-01,0.000000000000e+00,0.000000000000e+00
      10,0.000000000000e+00,1.250000000000e-01,0.000000000000e+00
      11,1.250000000000e-01,0.000000000000e+00,0.000000000000e+00
      12,1.250000000000e-01,1.250000000000e-01,0.000000000000e+00
      13,1.000000000000e+00,2.500000000000e-01,0.000000000000e+00
      14,1.000000000000e+00,5.000000000000e-01,0.000000000000e+00
      15,1.000000000000e+00,3.750000000000e-01,0.000000000000e+00
      16,7.499999997470e-01,3.891892900778e-01,-3.725290409484e-09
      17,7.499999997470e-01,2.641892900778e-01,-3.725290409484e-09
      18,8.750000000000e-01,1.250000000000e-01,0.000000000000e+00
      19,1.000000000000e+00,0.000000000000e+00,0.000000000000e+00
      20,8.750000000000e-01,0.000000000000e+00,0.000000000000e+00
** ... 333 like lines cut
*ELEMENT, TYPE=S8, ELSET=Eshell,DLOAD
   109,    219,222,221,220,226,225,224,223
*ELEMENT, TYPE=C3D10, ELSET=Eall
   110,    62,    61,    60,   229,    64,    63,    65,   240,   241,   242 
   111,   228,    22,   170,    14,   243,   180,   245,   246,    52,   179 
   112,   228,    41,   205,    23,   249,   218,   251,   252,    42,   208 
   113,    98,   198,   233,   135,   210,   256,   257,   201,   209,   260 
   114,   108,   107,   232,   227,   110,   262,   263,   264,   265,   266 
   115,    60,    61,   113,   229,    63,   114,   115,   242,   241,   269 
   116,   233,   198,    94,   230,   256,   211,   271,   272,   273,   274 
   117,   108,   107,   227,     7,   110,   265,   264,   118,   117,   277 
   118,    24,    23,   228,    22,    26,   252,   279,    27,    25,   243 
   119,   229,    60,    62,    56,   242,    65,   240,   282,    85,    82 
   120,    22,   170,   234,   228,   180,   285,   286,   243,   245,   287 
   121,   229,    62,    54,    56,   240,    81,   289,   282,    82,    59 
   122,   227,    13,    14,   183,   291,    15,   293,   294,   186,   197 
   123,     3,    13,    14,   227,    17,    15,    16,   299,   291,   293 
   124,    55,    72,   148,   231,    73,   149,   150,   303,   304,   305 
   125,   170,   227,    14,   183,   306,   293,   179,   195,   294,   197 
   126,   108,   155,     9,   227,   156,   158,   157,   264,   311,   312 
   127,     2,   227,   142,   143,   313,   314,   152,   153,   317,   145 
   128,     2,    19,    13,   236,    20,    21,    18,   322,   323,   324 
   129,    24,    41,   228,    23,    43,   249,   279,    26,    42,   252 
** ... 140 like lines cut
** Names based on fix
*NSET,NSET=Nfix 
1, 
2, 
3, 
4, 
5, 
6, 
7, 
8, 
9, 
10, 
11, 
12, 
13, 
14, 
15, 
16, 
17, 
18, 
19, 
20, 
** ... 33 like lines cut
*BOUNDARY
Nfix,1,3
*MATERIAL,NAME=EL
*ELASTIC
210000.,.0
*SOLID SECTION,ELSET=Eall,MATERIAL=EL
*NSET,NSET=N1
*STEP
*STATIC
*DLOAD
109, I, 100.000000 
*REFINE MESH,LIMIT=10.
ERR
*NODE FILE,NSET=N1
ERR
*NODE PRINT,NSET=Nfix,TOTALS=YES
RF
*END STEP
