**
**   Structure: fluid flow between two cylinders.
**   Test objective: incompressible Couette flow with fixed
**                   wall temperature.
**                   pressure at the outside: 2.5
**                   max temperature: 1.5
**                   
*NODE, NSET=Nall
       1,-1.000000000000e+00,0.000000000000e+00,0.000000000000e+00
       2,-9.807852804032e-01,1.950903220161e-01,0.000000000000e+00
       3,-9.807852804032e-01,1.950903220161e-01,1.000000000000e-01
       4,-1.000000000000e+00,0.000000000000e+00,1.000000000000e-01
       5,-8.750000000000e-01,0.000000000000e+00,0.000000000000e+00
       6,-8.581871203528e-01,1.707040317641e-01,-2.220446049250e-16
       7,-8.581871203528e-01,1.707040317641e-01,1.000000000000e-01
       8,-8.750000000000e-01,0.000000000000e+00,1.000000000000e-01
       9,-7.500000000000e-01,0.000000000000e+00,0.000000000000e+00
      10,-7.355889603024e-01,1.463177415121e-01,5.551115123126e-17
      11,-7.355889603024e-01,1.463177415121e-01,1.000000000000e-01
      12,-7.500000000000e-01,0.000000000000e+00,1.000000000000e-01
      13,-6.250000000000e-01,0.000000000000e+00,0.000000000000e+00
      14,-6.129908002520e-01,1.219314512601e-01,0.000000000000e+00
      15,-6.129908002520e-01,1.219314512601e-01,1.000000000000e-01
      16,-6.250000000000e-01,0.000000000000e+00,1.000000000000e-01
      17,-5.000000000000e-01,0.000000000000e+00,0.000000000000e+00
      18,-4.903926402016e-01,9.754516100806e-02,0.000000000000e+00
      19,-4.903926402016e-01,9.754516100806e-02,1.000000000000e-01
      20,-5.000000000000e-01,0.000000000000e+00,1.000000000000e-01
** ... 300 like lines cut
*ELEMENT, TYPE=F3D8, ELSET=Eall
     1,     1,     2,     3,     4,     5,     6,     7,     8
     2,     5,     6,     7,     8,     9,    10,    11,    12
     3,     9,    10,    11,    12,    13,    14,    15,    16
     4,    13,    14,    15,    16,    17,    18,    19,    20
     5,     2,    21,    22,     3,     6,    23,    24,     7
     6,     6,    23,    24,     7,    10,    25,    26,    11
     7,    10,    25,    26,    11,    14,    27,    28,    15
     8,    14,    27,    28,    15,    18,    29,    30,    19
     9,    21,    31,    32,    22,    23,    33,    34,    24
    10,    23,    33,    34,    24,    25,    35,    36,    26
    11,    25,    35,    36,    26,    27,    37,    38,    28
    12,    27,    37,    38,    28,    29,    39,    40,    30
    13,    31,    41,    42,    32,    33,    43,    44,    34
    14,    33,    43,    44,    34,    35,    45,    46,    36
    15,    35,    45,    46,    36,    37,    47,    48,    38
    16,    37,    47,    48,    38,    39,    49,    50,    40
    17,    41,    51,    52,    42,    43,    53,    54,    44
    18,    43,    53,    54,    44,    45,    55,    56,    46
    19,    45,    55,    56,    46,    47,    57,    58,    48
    20,    47,    57,    58,    48,    49,    59,    60,    50
** ... 108 like lines cut
*NSET,NSET=Nwallin 
17, 
18, 
29, 
39, 
49, 
59, 
69, 
79, 
89, 
107, 
108, 
119, 
129, 
139, 
149, 
159, 
169, 
187, 
188, 
199, 
** ... 12 like lines cut
*NSET,NSET=Nwallout 
1, 
2, 
21, 
31, 
41, 
51, 
61, 
71, 
81, 
91, 
92, 
111, 
121, 
131, 
141, 
151, 
161, 
171, 
172, 
191, 
** ... 12 like lines cut
*EQUATION
2
3,1,-1.000000000000,2,1,1.000000000000 
*EQUATION
2
3,2,-1.000000000000,2,2,1.000000000000 
*EQUATION
2
4,1,-1.000000000000,1,1,1.000000000000 
*EQUATION
2
4,2,-1.000000000000,1,2,1.000000000000 
*EQUATION
2
7,1,-1.000000000000,6,1,1.000000000000 
*EQUATION
2
7,2,-1.000000000000,6,2,1.000000000000 
*EQUATION
2
8,1,-1.000000000000,5,1,1.000000000000 
*EQUATION
2
8,2,-1.000000000000,5,2,1.000000000000 
*EQUATION
2
11,1,-1.000000000000,10,1,1.000000000000 
*EQUATION
2
11,2,-1.000000000000,10,2,1.000000000000 
*EQUATION
2
12,1,-1.000000000000,9,1,1.000000000000 
*EQUATION
2
12,2,-1.000000000000,9,2,1.000000000000 
*EQUATION
2
15,1,-1.000000000000,14,1,1.000000000000 
*EQUATION
2
15,2,-1.000000000000,14,2,1.000000000000 
*EQUATION
2
16,1,-1.000000000000,13,1,1.000000000000 
*EQUATION
2
16,2,-1.000000000000,13,2,1.000000000000 
*EQUATION
2
19,1,-1.000000000000,18,1,1.000000000000 
*EQUATION
2
19,2,-1.000000000000,18,2,1.000000000000 
*EQUATION
2
20,1,-1.000000000000,17,1,1.000000000000 
*EQUATION
2
20,2,-1.000000000000,17,2,1.000000000000 
*EQUATION
2
22,1,-1.000000000000,21,1,1.000000000000 
*EQUATION
2
22,2,-1.000000000000,21,2,1.000000000000 
*EQUATION
2
24,1,-1.000000000000,23,1,1.000000000000 
*EQUATION
2
24,2,-1.000000000000,23,2,1.000000000000 
*EQUATION
2
26,1,-1.000000000000,25,1,1.000000000000 
*EQUATION
2
26,2,-1.000000000000,25,2,1.000000000000 
*EQUATION
2
28,1,-1.000000000000,27,1,1.000000000000 
*EQUATION
2
28,2,-1.000000000000,27,2,1.000000000000 
*EQUATION
2
30,1,-1.000000000000,29,1,1.000000000000 
*EQUATION
2
30,2,-1.000000000000,29,2,1.000000000000 
*EQUATION
2
32,1,-1.000000000000,31,1,1.000000000000 
*EQUATION
2
32,2,-1.000000000000,31,2,1.000000000000 
*EQUATION
2
34,1,-1.000000000000,33,1,1.000000000000 
*EQUATION
2
34,2,-1.000000000000,33,2,1.000000000000 
*EQUATION
2
36,1,-1.000000000000,35,1,1.000000000000 
*EQUATION
2
36,2,-1.000000000000,35,2,1.000000000000 
*EQUATION
2
38,1,-1.000000000000,37,1,1.000000000000 
*EQUATION
2
38,2,-1.000000000000,37,2,1.000000000000 
*EQUATION
2
40,1,-1.000000000000,39,1,1.000000000000 
*EQUATION
2
40,2,-1.000000000000,39,2,1.000000000000 
*EQUATION
2
42,1,-1.000000000000,41,1,1.000000000000 
*EQUATION
2
42,2,-1.000000000000,41,2,1.000000000000 
*EQUATION
2
44,1,-1.000000000000,43,1,1.000000000000 
*EQUATION
2
44,2,-1.000000000000,43,2,1.000000000000 
*EQUATION
2
46,1,-1.000000000000,45,1,1.000000000000 
*EQUATION
2
46,2,-1.000000000000,45,2,1.000000000000 
*EQUATION
2
48,1,-1.000000000000,47,1,1.000000000000 
*EQUATION
2
48,2,-1.000000000000,47,2,1.000000000000 
*EQUATION
2
50,1,-1.000000000000,49,1,1.000000000000 
*EQUATION
2
50,2,-1.000000000000,49,2,1.000000000000 
*EQUATION
2
52,1,-1.000000000000,51,1,1.000000000000 
*EQUATION
2
52,2,-1.000000000000,51,2,1.000000000000 
*EQUATION
2
54,1,-1.000000000000,53,1,1.000000000000 
*EQUATION
2
54,2,-1.000000000000,53,2,1.000000000000 
*EQUATION
2
56,1,-1.000000000000,55,1,1.000000000000 
*EQUATION
2
56,2,-1.000000000000,55,2,1.000000000000 
*EQUATION
2
58,1,-1.000000000000,57,1,1.000000000000 
*EQUATION
2
58,2,-1.000000000000,57,2,1.000000000000 
*EQUATION
2
60,1,-1.000000000000,59,1,1.000000000000 
*EQUATION
2
60,2,-1.000000000000,59,2,1.000000000000 
*EQUATION
2
62,1,-1.000000000000,61,1,1.000000000000 
*EQUATION
2
62,2,-1.000000000000,61,2,1.000000000000 
*EQUATION
2
64,1,-1.000000000000,63,1,1.000000000000 
*EQUATION
2
64,2,-1.000000000000,63,2,1.000000000000 
*EQUATION
2
66,1,-1.000000000000,65,1,1.000000000000 
*EQUATION
2
66,2,-1.000000000000,65,2,1.000000000000 
*EQUATION
2
68,1,-1.000000000000,67,1,1.000000000000 
*EQUATION
2
68,2,-1.000000000000,67,2,1.000000000000 
*EQUATION
2
70,1,-1.000000000000,69,1,1.000000000000 
*EQUATION
2
70,2,-1.000000000000,69,2,1.000000000000 
*EQUATION
2
72,1,-1.000000000000,71,1,1.000000000000 
*EQUATION
2
72,2,-1.000000000000,71,2,1.000000000000 
*EQUATION
2
74,1,-1.000000000000,73,1,1.000000000000 
*EQUATION
2
74,2,-1.000000000000,73,2,1.000000000000 
*EQUATION
2
76,1,-1.000000000000,75,1,1.000000000000 
*EQUATION
2
76,2,-1.000000000000,75,2,1.000000000000 
*EQUATION
2
78,1,-1.000000000000,77,1,1.000000000000 
*EQUATION
2
78,2,-1.000000000000,77,2,1.000000000000 
*EQUATION
2
80,1,-1.000000000000,79,1,1.000000000000 
*EQUATION
2
80,2,-1.000000000000,79,2,1.000000000000 
*EQUATION
2
82,1,-1.000000000000,81,1,1.000000000000 
*EQUATION
2
82,2,-1.000000000000,81,2,1.000000000000 
*EQUATION
2
84,1,-1.000000000000,83,1,1.000000000000 
*EQUATION
2
84,2,-1.000000000000,83,2,1.000000000000 
*EQUATION
2
86,1,-1.000000000000,85,1,1.000000000000 
*EQUATION
2
86,2,-1.000000000000,85,2,1.000000000000 
*EQUATION
2
88,1,-1.000000000000,87,1,1.000000000000 
*EQUATION
2
88,2,-1.000000000000,87,2,1.000000000000 
*EQUATION
2
90,1,-1.000000000000,89,1,1.000000000000 
*EQUATION
2
90,2,-1.000000000000,89,2,1.000000000000 
*EQUATION
2
93,1,-1.000000000000,92,1,1.000000000000 
*EQUATION
2
93,2,-1.000000000000,92,2,1.000000000000 
*EQUATION
2
94,1,-1.000000000000,91,1,1.000000000000 
*EQUATION
2
94,2,-1.000000000000,91,2,1.000000000000 
*EQUATION
2
97,1,-1.000000000000,96,1,1.000000000000 
*EQUATION
2
97,2,-1.000000000000,96,2,1.000000000000 
*EQUATION
2
98,1,-1.000000000000,95,1,1.000000000000 
*EQUATION
2
98,2,-1.000000000000,95,2,1.000000000000 
*EQUATION
2
101,1,-1.000000000000,100,1,1.000000000000 
*EQUATION
2
101,2,-1.000000000000,100,2,1.000000000000 
*EQUATION
2
102,1,-1.000000000000,99,1,1.000000000000 
*EQUATION
2
102,2,-1.000000000000,99,2,1.000000000000 
*EQUATION
2
105,1,-1.000000000000,104,1,1.000000000000 
*EQUATION
2
105,2,-1.000000000000,104,2,1.000000000000 
*EQUATION
2
106,1,-1.000000000000,103,1,1.000000000000 
*EQUATION
2
106,2,-1.000000000000,103,2,1.000000000000 
*EQUATION
2
109,1,-1.000000000000,108,1,1.000000000000 
*EQUATION
2
109,2,-1.000000000000,108,2,1.000000000000 
*EQUATION
2
110,1,-1.000000000000,107,1,1.000000000000 
*EQUATION
2
110,2,-1.000000000000,107,2,1.000000000000 
*EQUATION
2
112,1,-1.000000000000,111,1,1.000000000000 
*EQUATION
2
112,2,-1.000000000000,111,2,1.000000000000 
*EQUATION
2
114,1,-1.000000000000,113,1,1.000000000000 
*EQUATION
2
114,2,-1.000000000000,113,2,1.000000000000 
*EQUATION
2
116,1,-1.000000000000,115,1,1.000000000000 
*EQUATION
2
116,2,-1.000000000000,115,2,1.000000000000 
*EQUATION
2
118,1,-1.000000000000,117,1,1.000000000000 
*EQUATION
2
118,2,-1.000000000000,117,2,1.000000000000 
*EQUATION
2
120,1,-1.000000000000,119,1,1.000000000000 
*EQUATION
2
120,2,-1.000000000000,119,2,1.000000000000 
*EQUATION
2
122,1,-1.000000000000,121,1,1.000000000000 
*EQUATION
2
122,2,-1.000000000000,121,2,1.000000000000 
*EQUATION
2
124,1,-1.000000000000,123,1,1.000000000000 
*EQUATION
2
124,2,-1.000000000000,123,2,1.000000000000 
*EQUATION
2
126,1,-1.000000000000,125,1,1.000000000000 
*EQUATION
2
126,2,-1.000000000000,125,2,1.000000000000 
*EQUATION
2
128,1,-1.000000000000,127,1,1.000000000000 
*EQUATION
2
128,2,-1.000000000000,127,2,1.000000000000 
*EQUATION
2
130,1,-1.000000000000,129,1,1.000000000000 
*EQUATION
2
130,2,-1.000000000000,129,2,1.000000000000 
*EQUATION
2
132,1,-1.000000000000,131,1,1.000000000000 
*EQUATION
2
132,2,-1.000000000000,131,2,1.000000000000 
*EQUATION
2
134,1,-1.000000000000,133,1,1.000000000000 
*EQUATION
2
134,2,-1.000000000000,133,2,1.000000000000 
*EQUATION
2
136,1,-1.000000000000,135,1,1.000000000000 
*EQUATION
2
136,2,-1.000000000000,135,2,1.000000000000 
*EQUATION
2
138,1,-1.000000000000,137,1,1.000000000000 
*EQUATION
2
138,2,-1.000000000000,137,2,1.000000000000 
*EQUATION
2
140,1,-1.000000000000,139,1,1.000000000000 
*EQUATION
2
140,2,-1.000000000000,139,2,1.000000000000 
*EQUATION
2
142,1,-1.000000000000,141,1,1.000000000000 
*EQUATION
2
142,2,-1.000000000000,141,2,1.000000000000 
*EQUATION
2
144,1,-1.000000000000,143,1,1.000000000000 
*EQUATION
2
144,2,-1.000000000000,143,2,1.000000000000 
*EQUATION
2
146,1,-1.000000000000,145,1,1.000000000000 
*EQUATION
2
146,2,-1.000000000000,145,2,1.000000000000 
*EQUATION
2
148,1,-1.000000000000,147,1,1.000000000000 
*EQUATION
2
148,2,-1.000000000000,147,2,1.000000000000 
*EQUATION
2
150,1,-1.000000000000,149,1,1.000000000000 
*EQUATION
2
150,2,-1.000000000000,149,2,1.000000000000 
*EQUATION
2
152,1,-1.000000000000,151,1,1.000000000000 
*EQUATION
2
152,2,-1.000000000000,151,2,1.000000000000 
*EQUATION
2
154,1,-1.000000000000,153,1,1.000000000000 
*EQUATION
2
154,2,-1.000000000000,153,2,1.000000000000 
*EQUATION
2
156,1,-1.000000000000,155,1,1.000000000000 
*EQUATION
2
156,2,-1.000000000000,155,2,1.000000000000 
*EQUATION
2
158,1,-1.000000000000,157,1,1.000000000000 
*EQUATION
2
158,2,-1.000000000000,157,2,1.000000000000 
*EQUATION
2
160,1,-1.000000000000,159,1,1.000000000000 
*EQUATION
2
160,2,-1.000000000000,159,2,1.000000000000 
*EQUATION
2
162,1,-1.000000000000,161,1,1.000000000000 
*EQUATION
2
162,2,-1.000000000000,161,2,1.000000000000 
*EQUATION
2
164,1,-1.000000000000,163,1,1.000000000000 
*EQUATION
2
164,2,-1.000000000000,163,2,1.000000000000 
*EQUATION
2
166,1,-1.000000000000,165,1,1.000000000000 
*EQUATION
2
166,2,-1.000000000000,165,2,1.000000000000 
*EQUATION
2
168,1,-1.000000000000,167,1,1.000000000000 
*EQUATION
2
168,2,-1.000000000000,167,2,1.000000000000 
*EQUATION
2
170,1,-1.000000000000,169,1,1.000000000000 
*EQUATION
2
170,2,-1.000000000000,169,2,1.000000000000 
*EQUATION
2
173,1,-1.000000000000,172,1,1.000000000000 
*EQUATION
2
173,2,-1.000000000000,172,2,1.000000000000 
*EQUATION
2
174,1,-1.000000000000,171,1,1.000000000000 
*EQUATION
2
174,2,-1.000000000000,171,2,1.000000000000 
*EQUATION
2
177,1,-1.000000000000,176,1,1.000000000000 
*EQUATION
2
177,2,-1.000000000000,176,2,1.000000000000 
*EQUATION
2
178,1,-1.000000000000,175,1,1.000000000000 
*EQUATION
2
178,2,-1.000000000000,175,2,1.000000000000 
*EQUATION
2
181,1,-1.000000000000,180,1,1.000000000000 
*EQUATION
2
181,2,-1.000000000000,180,2,1.000000000000 
*EQUATION
2
182,1,-1.000000000000,179,1,1.000000000000 
*EQUATION
2
182,2,-1.000000000000,179,2,1.000000000000 
*EQUATION
2
185,1,-1.000000000000,184,1,1.000000000000 
*EQUATION
2
185,2,-1.000000000000,184,2,1.000000000000 
*EQUATION
2
186,1,-1.000000000000,183,1,1.000000000000 
*EQUATION
2
186,2,-1.000000000000,183,2,1.000000000000 
*EQUATION
2
189,1,-1.000000000000,188,1,1.000000000000 
*EQUATION
2
189,2,-1.000000000000,188,2,1.000000000000 
*EQUATION
2
190,1,-1.000000000000,187,1,1.000000000000 
*EQUATION
2
190,2,-1.000000000000,187,2,1.000000000000 
*EQUATION
2
192,1,-1.000000000000,191,1,1.000000000000 
*EQUATION
2
192,2,-1.000000000000,191,2,1.000000000000 
*EQUATION
2
194,1,-1.000000000000,193,1,1.000000000000 
*EQUATION
2
194,2,-1.000000000000,193,2,1.000000000000 
*EQUATION
2
196,1,-1.000000000000,195,1,1.000000000000 
*EQUATION
2
196,2,-1.000000000000,195,2,1.000000000000 
*EQUATION
2
198,1,-1.000000000000,197,1,1.000000000000 
*EQUATION
2
198,2,-1.000000000000,197,2,1.000000000000 
*EQUATION
2
200,1,-1.000000000000,199,1,1.000000000000 
*EQUATION
2
200,2,-1.000000000000,199,2,1.000000000000 
*EQUATION
2
202,1,-1.000000000000,201,1,1.000000000000 
*EQUATION
2
202,2,-1.000000000000,201,2,1.000000000000 
*EQUATION
2
204,1,-1.000000000000,203,1,1.000000000000 
*EQUATION
2
204,2,-1.000000000000,203,2,1.000000000000 
*EQUATION
2
206,1,-1.000000000000,205,1,1.000000000000 
*EQUATION
2
206,2,-1.000000000000,205,2,1.000000000000 
*EQUATION
2
208,1,-1.000000000000,207,1,1.000000000000 
*EQUATION
2
208,2,-1.000000000000,207,2,1.000000000000 
*EQUATION
2
210,1,-1.000000000000,209,1,1.000000000000 
*EQUATION
2
210,2,-1.000000000000,209,2,1.000000000000 
*EQUATION
2
212,1,-1.000000000000,211,1,1.000000000000 
*EQUATION
2
212,2,-1.000000000000,211,2,1.000000000000 
*EQUATION
2
214,1,-1.000000000000,213,1,1.000000000000 
*EQUATION
2
214,2,-1.000000000000,213,2,1.000000000000 
*EQUATION
2
216,1,-1.000000000000,215,1,1.000000000000 
*EQUATION
2
216,2,-1.000000000000,215,2,1.000000000000 
*EQUATION
2
218,1,-1.000000000000,217,1,1.000000000000 
*EQUATION
2
218,2,-1.000000000000,217,2,1.000000000000 
*EQUATION
2
220,1,-1.000000000000,219,1,1.000000000000 
*EQUATION
2
220,2,-1.000000000000,219,2,1.000000000000 
*EQUATION
2
222,1,-1.000000000000,221,1,1.000000000000 
*EQUATION
2
222,2,-1.000000000000,221,2,1.000000000000 
*EQUATION
2
224,1,-1.000000000000,223,1,1.000000000000 
*EQUATION
2
224,2,-1.000000000000,223,2,1.000000000000 
*EQUATION
2
226,1,-1.000000000000,225,1,1.000000000000 
*EQUATION
2
226,2,-1.000000000000,225,2,1.000000000000 
*EQUATION
2
228,1,-1.000000000000,227,1,1.000000000000 
*EQUATION
2
228,2,-1.000000000000,227,2,1.000000000000 
*EQUATION
2
230,1,-1.000000000000,229,1,1.000000000000 
*EQUATION
2
230,2,-1.000000000000,229,2,1.000000000000 
*EQUATION
2
232,1,-1.000000000000,231,1,1.000000000000 
*EQUATION
2
232,2,-1.000000000000,231,2,1.000000000000 
*EQUATION
2
234,1,-1.000000000000,233,1,1.000000000000 
*EQUATION
2
234,2,-1.000000000000,233,2,1.000000000000 
*EQUATION
2
236,1,-1.000000000000,235,1,1.000000000000 
*EQUATION
2
236,2,-1.000000000000,235,2,1.000000000000 
*EQUATION
2
238,1,-1.000000000000,237,1,1.000000000000 
*EQUATION
2
238,2,-1.000000000000,237,2,1.000000000000 
*EQUATION
2
240,1,-1.000000000000,239,1,1.000000000000 
*EQUATION
2
240,2,-1.000000000000,239,2,1.000000000000 
*EQUATION
2
242,1,-1.000000000000,241,1,1.000000000000 
*EQUATION
2
242,2,-1.000000000000,241,2,1.000000000000 
*EQUATION
2
244,1,-1.000000000000,243,1,1.000000000000 
*EQUATION
2
244,2,-1.000000000000,243,2,1.000000000000 
*EQUATION
2
246,1,-1.000000000000,245,1,1.000000000000 
*EQUATION
2
246,2,-1.000000000000,245,2,1.000000000000 
*EQUATION
2
248,1,-1.000000000000,247,1,1.000000000000 
*EQUATION
2
248,2,-1.000000000000,247,2,1.000000000000 
*EQUATION
2
250,1,-1.000000000000,249,1,1.000000000000 
*EQUATION
2
250,2,-1.000000000000,249,2,1.000000000000 
*EQUATION
2
252,1,-1.000000000000,251,1,1.000000000000 
*EQUATION
2
252,2,-1.000000000000,251,2,1.000000000000 
*EQUATION
2
254,1,-1.000000000000,253,1,1.000000000000 
*EQUATION
2
254,2,-1.000000000000,253,2,1.000000000000 
*EQUATION
2
256,1,-1.000000000000,255,1,1.000000000000 
*EQUATION
2
256,2,-1.000000000000,255,2,1.000000000000 
*EQUATION
2
258,1,-1.000000000000,257,1,1.000000000000 
*EQUATION
2
258,2,-1.000000000000,257,2,1.000000000000 
*EQUATION
2
260,1,-1.000000000000,259,1,1.000000000000 
*EQUATION
2
260,2,-1.000000000000,259,2,1.000000000000 
*EQUATION
2
262,1,-1.000000000000,261,1,1.000000000000 
*EQUATION
2
262,2,-1.000000000000,261,2,1.000000000000 
*EQUATION
2
264,1,-1.000000000000,263,1,1.000000000000 
*EQUATION
2
264,2,-1.000000000000,263,2,1.000000000000 
*EQUATION
2
266,1,-1.000000000000,265,1,1.000000000000 
*EQUATION
2
266,2,-1.000000000000,265,2,1.000000000000 
*EQUATION
2
268,1,-1.000000000000,267,1,1.000000000000 
*EQUATION
2
268,2,-1.000000000000,267,2,1.000000000000 
*EQUATION
2
270,1,-1.000000000000,269,1,1.000000000000 
*EQUATION
2
270,2,-1.000000000000,269,2,1.000000000000 
*EQUATION
2
272,1,-1.000000000000,271,1,1.000000000000 
*EQUATION
2
272,2,-1.000000000000,271,2,1.000000000000 
*EQUATION
2
274,1,-1.000000000000,273,1,1.000000000000 
*EQUATION
2
274,2,-1.000000000000,273,2,1.000000000000 
*EQUATION
2
276,1,-1.000000000000,275,1,1.000000000000 
*EQUATION
2
276,2,-1.000000000000,275,2,1.000000000000 
*EQUATION
2
278,1,-1.000000000000,277,1,1.000000000000 
*EQUATION
2
278,2,-1.000000000000,277,2,1.000000000000 
*EQUATION
2
280,1,-1.000000000000,279,1,1.000000000000 
*EQUATION
2
280,2,-1.000000000000,279,2,1.000000000000 
*EQUATION
2
282,1,-1.000000000000,281,1,1.000000000000 
*EQUATION
2
282,2,-1.000000000000,281,2,1.000000000000 
*EQUATION
2
284,1,-1.000000000000,283,1,1.000000000000 
*EQUATION
2
284,2,-1.000000000000,283,2,1.000000000000 
*EQUATION
2
286,1,-1.000000000000,285,1,1.000000000000 
*EQUATION
2
286,2,-1.000000000000,285,2,1.000000000000 
*EQUATION
2
288,1,-1.000000000000,287,1,1.000000000000 
*EQUATION
2
288,2,-1.000000000000,287,2,1.000000000000 
*EQUATION
2
290,1,-1.000000000000,289,1,1.000000000000 
*EQUATION
2
290,2,-1.000000000000,289,2,1.000000000000 
*EQUATION
2
292,1,-1.000000000000,291,1,1.000000000000 
*EQUATION
2
292,2,-1.000000000000,291,2,1.000000000000 
*EQUATION
2
294,1,-1.000000000000,293,1,1.000000000000 
*EQUATION
2
294,2,-1.000000000000,293,2,1.000000000000 
*EQUATION
2
296,1,-1.000000000000,295,1,1.000000000000 
*EQUATION
2
296,2,-1.000000000000,295,2,1.000000000000 
*EQUATION
2
298,1,-1.000000000000,297,1,1.000000000000 
*EQUATION
2
298,2,-1.000000000000,297,2,1.000000000000 
*EQUATION
2
300,1,-1.000000000000,299,1,1.000000000000 
*EQUATION
2
300,2,-1.000000000000,299,2,1.000000000000 
*EQUATION
2
302,1,-1.000000000000,301,1,1.000000000000 
*EQUATION
2
302,2,-1.000000000000,301,2,1.000000000000 
*EQUATION
2
304,1,-1.000000000000,303,1,1.000000000000 
*EQUATION
2
304,2,-1.000000000000,303,2,1.000000000000 
*EQUATION
2
306,1,-1.000000000000,305,1,1.000000000000 
*EQUATION
2
306,2,-1.000000000000,305,2,1.000000000000 
*EQUATION
2
308,1,-1.000000000000,307,1,1.000000000000 
*EQUATION
2
308,2,-1.000000000000,307,2,1.000000000000 
*EQUATION
2
310,1,-1.000000000000,309,1,1.000000000000 
*EQUATION
2
310,2,-1.000000000000,309,2,1.000000000000 
*EQUATION
2
312,1,-1.000000000000,311,1,1.000000000000 
*EQUATION
2
312,2,-1.000000000000,311,2,1.000000000000 
*EQUATION
2
314,1,-1.000000000000,313,1,1.000000000000 
*EQUATION
2
314,2,-1.000000000000,313,2,1.000000000000 
*EQUATION
2
316,1,-1.000000000000,315,1,1.000000000000 
*EQUATION
2
316,2,-1.000000000000,315,2,1.000000000000 
*EQUATION
2
318,1,-1.000000000000,317,1,1.000000000000 
*EQUATION
2
318,2,-1.000000000000,317,2,1.000000000000 
*EQUATION
2
320,1,-1.000000000000,319,1,1.000000000000 
*EQUATION
2
320,2,-1.000000000000,319,2,1.000000000000 
*EQUATION
2
3,11,-1.000000000000,2,11,1.000000000000 
*EQUATION
2
4,11,-1.000000000000,1,11,1.000000000000 
*EQUATION
2
7,11,-1.000000000000,6,11,1.000000000000 
*EQUATION
2
8,11,-1.000000000000,5,11,1.000000000000 
*EQUATION
2
11,11,-1.000000000000,10,11,1.000000000000 
*EQUATION
2
12,11,-1.000000000000,9,11,1.000000000000 
*EQUATION
2
15,11,-1.000000000000,14,11,1.000000000000 
*EQUATION
2
16,11,-1.000000000000,13,11,1.000000000000 
*EQUATION
2
19,11,-1.000000000000,18,11,1.000000000000 
*EQUATION
2
20,11,-1.000000000000,17,11,1.000000000000 
*EQUATION
2
22,11,-1.000000000000,21,11,1.000000000000 
*EQUATION
2
24,11,-1.000000000000,23,11,1.000000000000 
*EQUATION
2
26,11,-1.000000000000,25,11,1.000000000000 
*EQUATION
2
28,11,-1.000000000000,27,11,1.000000000000 
*EQUATION
2
30,11,-1.000000000000,29,11,1.000000000000 
*EQUATION
2
32,11,-1.000000000000,31,11,1.000000000000 
*EQUATION
2
34,11,-1.000000000000,33,11,1.000000000000 
*EQUATION
2
36,11,-1.000000000000,35,11,1.000000000000 
*EQUATION
2
38,11,-1.000000000000,37,11,1.000000000000 
*EQUATION
2
40,11,-1.000000000000,39,11,1.000000000000 
*EQUATION
2
42,11,-1.000000000000,41,11,1.000000000000 
*EQUATION
2
44,11,-1.000000000000,43,11,1.000000000000 
*EQUATION
2
46,11,-1.000000000000,45,11,1.000000000000 
*EQUATION
2
48,11,-1.000000000000,47,11,1.000000000000 
*EQUATION
2
50,11,-1.000000000000,49,11,1.000000000000 
*EQUATION
2
52,11,-1.000000000000,51,11,1.000000000000 
*EQUATION
2
54,11,-1.000000000000,53,11,1.000000000000 
*EQUATION
2
56,11,-1.000000000000,55,11,1.000000000000 
*EQUATION
2
58,11,-1.000000000000,57,11,1.000000000000 
*EQUATION
2
60,11,-1.000000000000,59,11,1.000000000000 
*EQUATION
2
62,11,-1.000000000000,61,11,1.000000000000 
*EQUATION
2
64,11,-1.000000000000,63,11,1.000000000000 
*EQUATION
2
66,11,-1.000000000000,65,11,1.000000000000 
*EQUATION
2
68,11,-1.000000000000,67,11,1.000000000000 
*EQUATION
2
70,11,-1.000000000000,69,11,1.000000000000 
*EQUATION
2
72,11,-1.000000000000,71,11,1.000000000000 
*EQUATION
2
74,11,-1.000000000000,73,11,1.000000000000 
*EQUATION
2
76,11,-1.000000000000,75,11,1.000000000000 
*EQUATION
2
78,11,-1.000000000000,77,11,1.000000000000 
*EQUATION
2
80,11,-1.000000000000,79,11,1.000000000000 
*EQUATION
2
82,11,-1.000000000000,81,11,1.000000000000 
*EQUATION
2
84,11,-1.000000000000,83,11,1.000000000000 
*EQUATION
2
86,11,-1.000000000000,85,11,1.000000000000 
*EQUATION
2
88,11,-1.000000000000,87,11,1.000000000000 
*EQUATION
2
90,11,-1.000000000000,89,11,1.000000000000 
*EQUATION
2
93,11,-1.000000000000,92,11,1.000000000000 
*EQUATION
2
94,11,-1.000000000000,91,11,1.000000000000 
*EQUATION
2
97,11,-1.000000000000,96,11,1.000000000000 
*EQUATION
2
98,11,-1.000000000000,95,11,1.000000000000 
*EQUATION
2
101,11,-1.000000000000,100,11,1.000000000000 
*EQUATION
2
102,11,-1.000000000000,99,11,1.000000000000 
*EQUATION
2
105,11,-1.000000000000,104,11,1.000000000000 
*EQUATION
2
106,11,-1.000000000000,103,11,1.000000000000 
*EQUATION
2
109,11,-1.000000000000,108,11,1.000000000000 
*EQUATION
2
110,11,-1.000000000000,107,11,1.000000000000 
*EQUATION
2
112,11,-1.000000000000,111,11,1.000000000000 
*EQUATION
2
114,11,-1.000000000000,113,11,1.000000000000 
*EQUATION
2
116,11,-1.000000000000,115,11,1.000000000000 
*EQUATION
2
118,11,-1.000000000000,117,11,1.000000000000 
*EQUATION
2
120,11,-1.000000000000,119,11,1.000000000000 
*EQUATION
2
122,11,-1.000000000000,121,11,1.000000000000 
*EQUATION
2
124,11,-1.000000000000,123,11,1.000000000000 
*EQUATION
2
126,11,-1.000000000000,125,11,1.000000000000 
*EQUATION
2
128,11,-1.000000000000,127,11,1.000000000000 
*EQUATION
2
130,11,-1.000000000000,129,11,1.000000000000 
*EQUATION
2
132,11,-1.000000000000,131,11,1.000000000000 
*EQUATION
2
134,11,-1.000000000000,133,11,1.000000000000 
*EQUATION
2
136,11,-1.000000000000,135,11,1.000000000000 
*EQUATION
2
138,11,-1.000000000000,137,11,1.000000000000 
*EQUATION
2
140,11,-1.000000000000,139,11,1.000000000000 
*EQUATION
2
142,11,-1.000000000000,141,11,1.000000000000 
*EQUATION
2
144,11,-1.000000000000,143,11,1.000000000000 
*EQUATION
2
146,11,-1.000000000000,145,11,1.000000000000 
*EQUATION
2
148,11,-1.000000000000,147,11,1.000000000000 
*EQUATION
2
150,11,-1.000000000000,149,11,1.000000000000 
*EQUATION
2
152,11,-1.000000000000,151,11,1.000000000000 
*EQUATION
2
154,11,-1.000000000000,153,11,1.000000000000 
*EQUATION
2
156,11,-1.000000000000,155,11,1.000000000000 
*EQUATION
2
158,11,-1.000000000000,157,11,1.000000000000 
*EQUATION
2
160,11,-1.000000000000,159,11,1.000000000000 
*EQUATION
2
162,11,-1.000000000000,161,11,1.000000000000 
*EQUATION
2
164,11,-1.000000000000,163,11,1.000000000000 
*EQUATION
2
166,11,-1.000000000000,165,11,1.000000000000 
*EQUATION
2
168,11,-1.000000000000,167,11,1.000000000000 
*EQUATION
2
170,11,-1.000000000000,169,11,1.000000000000 
*EQUATION
2
173,11,-1.000000000000,172,11,1.000000000000 
*EQUATION
2
174,11,-1.000000000000,171,11,1.000000000000 
*EQUATION
2
177,11,-1.000000000000,176,11,1.000000000000 
*EQUATION
2
178,11,-1.000000000000,175,11,1.000000000000 
*EQUATION
2
181,11,-1.000000000000,180,11,1.000000000000 
*EQUATION
2
182,11,-1.000000000000,179,11,1.000000000000 
*EQUATION
2
185,11,-1.000000000000,184,11,1.000000000000 
*EQUATION
2
186,11,-1.000000000000,183,11,1.000000000000 
*EQUATION
2
189,11,-1.000000000000,188,11,1.000000000000 
*EQUATION
2
190,11,-1.000000000000,187,11,1.000000000000 
*EQUATION
2
192,11,-1.000000000000,191,11,1.000000000000 
*EQUATION
2
194,11,-1.000000000000,193,11,1.000000000000 
*EQUATION
2
196,11,-1.000000000000,195,11,1.000000000000 
*EQUATION
2
198,11,-1.000000000000,197,11,1.000000000000 
*EQUATION
2
200,11,-1.000000000000,199,11,1.000000000000 
*EQUATION
2
202,11,-1.000000000000,201,11,1.000000000000 
*EQUATION
2
204,11,-1.000000000000,203,11,1.000000000000 
*EQUATION
2
206,11,-1.000000000000,205,11,1.000000000000 
*EQUATION
2
208,11,-1.000000000000,207,11,1.000000000000 
*EQUATION
2
210,11,-1.000000000000,209,11,1.000000000000 
*EQUATION
2
212,11,-1.000000000000,211,11,1.000000000000 
*EQUATION
2
214,11,-1.000000000000,213,11,1.000000000000 
*EQUATION
2
216,11,-1.000000000000,215,11,1.000000000000 
*EQUATION
2
218,11,-1.000000000000,217,11,1.000000000000 
*EQUATION
2
220,11,-1.000000000000,219,11,1.000000000000 
*EQUATION
2
222,11,-1.000000000000,221,11,1.000000000000 
*EQUATION
2
224,11,-1.000000000000,223,11,1.000000000000 
*EQUATION
2
226,11,-1.000000000000,225,11,1.000000000000 
*EQUATION
2
228,11,-1.000000000000,227,11,1.000000000000 
*EQUATION
2
230,11,-1.000000000000,229,11,1.000000000000 
*EQUATION
2
232,11,-1.000000000000,231,11,1.000000000000 
*EQUATION
2
234,11,-1.000000000000,233,11,1.000000000000 
*EQUATION
2
236,11,-1.000000000000,235,11,1.000000000000 
*EQUATION
2
238,11,-1.000000000000,237,11,1.000000000000 
*EQUATION
2
240,11,-1.000000000000,239,11,1.000000000000 
*EQUATION
2
242,11,-1.000000000000,241,11,1.000000000000 
*EQUATION
2
244,11,-1.000000000000,243,11,1.000000000000 
*EQUATION
2
246,11,-1.000000000000,245,11,1.000000000000 
*EQUATION
2
248,11,-1.000000000000,247,11,1.000000000000 
*EQUATION
2
250,11,-1.000000000000,249,11,1.000000000000 
*EQUATION
2
252,11,-1.000000000000,251,11,1.000000000000 
*EQUATION
2
254,11,-1.000000000000,253,11,1.000000000000 
*EQUATION
2
256,11,-1.000000000000,255,11,1.000000000000 
*EQUATION
2
258,11,-1.000000000000,257,11,1.000000000000 
*EQUATION
2
260,11,-1.000000000000,259,11,1.000000000000 
*EQUATION
2
262,11,-1.000000000000,261,11,1.000000000000 
*EQUATION
2
264,11,-1.000000000000,263,11,1.000000000000 
*EQUATION
2
266,11,-1.000000000000,265,11,1.000000000000 
*EQUATION
2
268,11,-1.000000000000,267,11,1.000000000000 
*EQUATION
2
270,11,-1.000000000000,269,11,1.000000000000 
*EQUATION
2
272,11,-1.000000000000,271,11,1.000000000000 
*EQUATION
2
274,11,-1.000000000000,273,11,1.000000000000 
*EQUATION
2
276,11,-1.000000000000,275,11,1.000000000000 
*EQUATION
2
278,11,-1.000000000000,277,11,1.000000000000 
*EQUATION
2
280,11,-1.000000000000,279,11,1.000000000000 
*EQUATION
2
282,11,-1.000000000000,281,11,1.000000000000 
*EQUATION
2
284,11,-1.000000000000,283,11,1.000000000000 
*EQUATION
2
286,11,-1.000000000000,285,11,1.000000000000 
*EQUATION
2
288,11,-1.000000000000,287,11,1.000000000000 
*EQUATION
2
290,11,-1.000000000000,289,11,1.000000000000 
*EQUATION
2
292,11,-1.000000000000,291,11,1.000000000000 
*EQUATION
2
294,11,-1.000000000000,293,11,1.000000000000 
*EQUATION
2
296,11,-1.000000000000,295,11,1.000000000000 
*EQUATION
2
298,11,-1.000000000000,297,11,1.000000000000 
*EQUATION
2
300,11,-1.000000000000,299,11,1.000000000000 
*EQUATION
2
302,11,-1.000000000000,301,11,1.000000000000 
*EQUATION
2
304,11,-1.000000000000,303,11,1.000000000000 
*EQUATION
2
306,11,-1.000000000000,305,11,1.000000000000 
*EQUATION
2
308,11,-1.000000000000,307,11,1.000000000000 
*EQUATION
2
310,11,-1.000000000000,309,11,1.000000000000 
*EQUATION
2
312,11,-1.000000000000,311,11,1.000000000000 
*EQUATION
2
314,11,-1.000000000000,313,11,1.000000000000 
*EQUATION
2
316,11,-1.000000000000,315,11,1.000000000000 
*EQUATION
2
318,11,-1.000000000000,317,11,1.000000000000 
*EQUATION
2
320,11,-1.000000000000,319,11,1.000000000000 
*TRANSFORM,TYPE=C,NSET=Nall
0.,0.,0.,0.,0.,1.
*MATERIAL,NAME=WATER
*DENSITY
1.
*FLUID CONSTANTS
1.,1.
*CONDUCTIVITY
1.
*SOLID SECTION,ELSET=Eall,MATERIAL=WATER
*INITIAL CONDITIONS,TYPE=PRESSURE
Nall,1.
*INITIAL CONDITIONS,TYPE=FLUID VELOCITY
Nall,1,0.
Nall,2,0.
Nall,3,0.
*INITIAL CONDITIONS,TYPE=TEMPERATURE
Nall,1.
*NSET,NSET=Nrad
187,183,179,175,171
*STEP,INCF=5000
*CFD,STEADY STATE
*BOUNDARY
Nall,3,3,0.
Nwallin,1,1,0.
Nwallin,2,2,2.
Nwallin,8,8,1.
Nwallin,11,11,1.
Nwallout,1,1,0.
Nwallout,2,2,1.
Nwallout,11,11,1.
*NODE PRINT,FREQUENCYF=5000,NSET=Nrad,GLOBAL=YES
VF,PSF,TSF
*NODE FILE
VF,PSF,TSF
*END STEP
