**
**   Structure: fluid flow between two plates.
**   Test objective: incompressible Couette flow with fixed
**                   wall temperature.
**                   velocity:linear between 0. and 1.
**                   temperature: maximum of 1.125
**
*NODE, NSET=Nall
       1,1.000000000000e-01,1.000000000000e+00,0.000000000000e+00
       2,1.000000000000e-01,9.500000000000e-01,0.000000000000e+00
       3,1.000000000000e-01,9.500000000000e-01,1.000000000000e-01
       4,1.000000000000e-01,1.000000000000e+00,1.000000000000e-01
       5,0.000000000000e+00,1.000000000000e+00,0.000000000000e+00
       6,0.000000000000e+00,9.500000000000e-01,0.000000000000e+00
       7,0.000000000000e+00,9.500000000000e-01,1.000000000000e-01
       8,0.000000000000e+00,1.000000000000e+00,1.000000000000e-01
       9,1.000000000000e-01,9.000000000000e-01,0.000000000000e+00
      10,1.000000000000e-01,9.000000000000e-01,1.000000000000e-01
      11,0.000000000000e+00,9.000000000000e-01,0.000000000000e+00
      12,0.000000000000e+00,9.000000000000e-01,1.000000000000e-01
      13,1.000000000000e-01,8.500000000000e-01,0.000000000000e+00
      14,1.000000000000e-01,8.500000000000e-01,1.000000000000e-01
      15,0.000000000000e+00,8.500000000000e-01,0.000000000000e+00
      16,0.000000000000e+00,8.500000000000e-01,1.000000000000e-01
      17,1.000000000000e-01,8.000000000000e-01,0.000000000000e+00
      18,1.000000000000e-01,8.000000000000e-01,1.000000000000e-01
      19,0.000000000000e+00,8.000000000000e-01,0.000000000000e+00
      20,0.000000000000e+00,8.000000000000e-01,1.000000000000e-01
** ... 64 like lines cut
*ELEMENT, TYPE=F3D8, ELSET=Eall
     1,     1,     2,     3,     4,     5,     6,     7,     8
     2,     2,     9,    10,     3,     6,    11,    12,     7
     3,     9,    13,    14,    10,    11,    15,    16,    12
     4,    13,    17,    18,    14,    15,    19,    20,    16
     5,    17,    21,    22,    18,    19,    23,    24,    20
     6,    21,    25,    26,    22,    23,    27,    28,    24
     7,    25,    29,    30,    26,    27,    31,    32,    28
     8,    29,    33,    34,    30,    31,    35,    36,    32
     9,    33,    37,    38,    34,    35,    39,    40,    36
    10,    37,    41,    42,    38,    39,    43,    44,    40
    11,    41,    45,    46,    42,    43,    47,    48,    44
    12,    45,    49,    50,    46,    47,    51,    52,    48
    13,    49,    53,    54,    50,    51,    55,    56,    52
    14,    53,    57,    58,    54,    55,    59,    60,    56
    15,    57,    61,    62,    58,    59,    63,    64,    60
    16,    61,    65,    66,    62,    63,    67,    68,    64
    17,    65,    69,    70,    66,    67,    71,    72,    68
    18,    69,    73,    74,    70,    71,    75,    76,    72
    19,    73,    77,    78,    74,    75,    79,    80,    76
    20,    77,    81,    82,    78,    79,    83,    84,    80
*EQUATION
5
1,1,-1.000000000000
5,1,1.000000000000
6,1,0.000000000000
7,1,0.000000000000
8,1,0.000000000000
*EQUATION
5
1,2,-1.000000000000
5,2,1.000000000000
6,2,0.000000000000
7,2,0.000000000000
8,2,0.000000000000
*EQUATION
5
2,1,-1.000000000000
5,1,0.000000000000
6,1,1.000000000000
7,1,0.000000000000
8,1,0.000000000000
*EQUATION
5
2,2,-1.000000000000
5,2,0.000000000000
6,2,1.000000000000
7,2,0.000000000000
8,2,0.000000000000
*EQUATION
5
3,1,-1.000000000000
5,1,0.000000000000
6,1,0.000000000000
7,1,1.000000000000
8,1,0.000000000000
*EQUATION
5
3,2,-1.000000000000
5,2,0.000000000000
6,2,0.000000000000
7,2,1.000000000000
8,2,0.000000000000
*EQUATION
5
4,1,-1.000000000000
5,1,0.000000000000
6,1,0.000000000000
7,1,0.000000000000
8,1,1.000000000000
*EQUATION
5
4,2,-1.000000000000
5,2,0.000000000000
6,2,0.000000000000
7,2,0.000000000000
8,2,1.000000000000
*EQUATION
5
9,1,-1.000000000000
6,1,0.000000000000
11,1,1.000000000000
12,1,0.000000000000
7,1,0.000000000000
*EQUATION
5
9,2,-1.000000000000
6,2,0.000000000000
11,2,1.000000000000
12,2,0.000000000000
7,2,0.000000000000
*EQUATION
5
10,1,-1.000000000000
6,1,0.000000000000
11,1,0.000000000000
12,1,1.000000000000
7,1,0.000000000000
*EQUATION
5
10,2,-1.000000000000
6,2,0.000000000000
11,2,0.000000000000
12,2,1.000000000000
7,2,0.000000000000
*EQUATION
5
13,1,-1.000000000000
11,1,0.000000000000
15,1,1.000000000000
16,1,0.000000000000
12,1,0.000000000000
*EQUATION
5
13,2,-1.000000000000
11,2,0.000000000000
15,2,1.000000000000
16,2,0.000000000000
12,2,0.000000000000
*EQUATION
5
14,1,-1.000000000000
11,1,0.000000000000
15,1,0.000000000000
16,1,1.000000000000
12,1,0.000000000000
*EQUATION
5
14,2,-1.000000000000
11,2,0.000000000000
15,2,0.000000000000
16,2,1.000000000000
12,2,0.000000000000
*EQUATION
5
17,1,-1.000000000000
15,1,0.000000000000
19,1,1.000000000000
20,1,0.000000000000
16,1,0.000000000000
*EQUATION
5
17,2,-1.000000000000
15,2,0.000000000000
19,2,1.000000000000
20,2,0.000000000000
16,2,0.000000000000
*EQUATION
5
18,1,-1.000000000000
15,1,0.000000000000
19,1,0.000000000000
20,1,1.000000000000
16,1,0.000000000000
*EQUATION
5
18,2,-1.000000000000
15,2,0.000000000000
19,2,0.000000000000
20,2,1.000000000000
16,2,0.000000000000
*EQUATION
5
21,1,-1.000000000000
19,1,0.000000000000
23,1,1.000000000000
24,1,0.000000000000
20,1,0.000000000000
*EQUATION
5
21,2,-1.000000000000
19,2,0.000000000000
23,2,1.000000000000
24,2,0.000000000000
20,2,0.000000000000
*EQUATION
5
22,1,-1.000000000000
19,1,0.000000000000
23,1,0.000000000000
24,1,1.000000000000
20,1,0.000000000000
*EQUATION
5
22,2,-1.000000000000
19,2,0.000000000000
23,2,0.000000000000
24,2,1.000000000000
20,2,0.000000000000
*EQUATION
5
25,1,-1.000000000000
23,1,0.000000000000
27,1,1.000000000000
28,1,0.000000000000
24,1,0.000000000000
*EQUATION
5
25,2,-1.000000000000
23,2,0.000000000000
27,2,1.000000000000
28,2,0.000000000000
24,2,0.000000000000
*EQUATION
5
26,1,-1.000000000000
23,1,0.000000000000
27,1,0.000000000000
28,1,1.000000000000
24,1,0.000000000000
*EQUATION
5
26,2,-1.000000000000
23,2,0.000000000000
27,2,0.000000000000
28,2,1.000000000000
24,2,0.000000000000
*EQUATION
5
29,1,-1.000000000000
27,1,0.000000000000
31,1,1.000000000000
32,1,0.000000000000
28,1,0.000000000000
*EQUATION
5
29,2,-1.000000000000
27,2,0.000000000000
31,2,1.000000000000
32,2,0.000000000000
28,2,0.000000000000
*EQUATION
5
30,1,-1.000000000000
27,1,0.000000000000
31,1,0.000000000000
32,1,1.000000000000
28,1,0.000000000000
*EQUATION
5
30,2,-1.000000000000
27,2,0.000000000000
31,2,0.000000000000
32,2,1.000000000000
28,2,0.000000000000
*EQUATION
5
33,1,-1.000000000000
31,1,0.000000000000
35,1,1.000000000000
36,1,0.000000000000
32,1,0.000000000000
*EQUATION
5
33,2,-1.000000000000
31,2,0.000000000000
35,2,1.000000000000
36,2,0.000000000000
32,2,0.000000000000
*EQUATION
5
34,1,-1.000000000000
31,1,0.000000000000
35,1,0.000000000000
36,1,1.000000000000
32,1,0.000000000000
*EQUATION
5
34,2,-1.000000000000
31,2,0.000000000000
35,2,0.000000000000
36,2,1.000000000000
32,2,0.000000000000
*EQUATION
5
37,1,-1.000000000000
35,1,0.000000000000
39,1,1.000000000000
40,1,0.000000000000
36,1,0.000000000000
*EQUATION
5
37,2,-1.000000000000
35,2,0.000000000000
39,2,1.000000000000
40,2,0.000000000000
36,2,0.000000000000
*EQUATION
5
38,1,-1.000000000000
35,1,0.000000000000
39,1,0.000000000000
40,1,1.000000000000
36,1,0.000000000000
*EQUATION
5
38,2,-1.000000000000
35,2,0.000000000000
39,2,0.000000000000
40,2,1.000000000000
36,2,0.000000000000
*EQUATION
5
41,1,-1.000000000000
39,1,0.000000000000
43,1,1.000000000000
44,1,0.000000000000
40,1,0.000000000000
*EQUATION
5
41,2,-1.000000000000
39,2,0.000000000000
43,2,1.000000000000
44,2,0.000000000000
40,2,0.000000000000
*EQUATION
5
42,1,-1.000000000000
39,1,0.000000000000
43,1,0.000000000000
44,1,1.000000000000
40,1,0.000000000000
*EQUATION
5
42,2,-1.000000000000
39,2,0.000000000000
43,2,0.000000000000
44,2,1.000000000000
40,2,0.000000000000
*EQUATION
5
45,1,-1.000000000000
43,1,0.000000000000
47,1,1.000000000000
48,1,0.000000000000
44,1,0.000000000000
*EQUATION
5
45,2,-1.000000000000
43,2,0.000000000000
47,2,1.000000000000
48,2,0.000000000000
44,2,0.000000000000
*EQUATION
5
46,1,-1.000000000000
43,1,0.000000000000
47,1,0.000000000000
48,1,1.000000000000
44,1,0.000000000000
*EQUATION
5
46,2,-1.000000000000
43,2,0.000000000000
47,2,0.000000000000
48,2,1.000000000000
44,2,0.000000000000
*EQUATION
5
49,1,-1.000000000000
47,1,0.000000000000
51,1,1.000000000000
52,1,0.000000000000
48,1,0.000000000000
*EQUATION
5
49,2,-1.000000000000
47,2,0.000000000000
51,2,1.000000000000
52,2,0.000000000000
48,2,0.000000000000
*EQUATION
5
50,1,-1.000000000000
47,1,0.000000000000
51,1,0.000000000000
52,1,1.000000000000
48,1,0.000000000000
*EQUATION
5
50,2,-1.000000000000
47,2,0.000000000000
51,2,0.000000000000
52,2,1.000000000000
48,2,0.000000000000
*EQUATION
5
53,1,-1.000000000000
51,1,0.000000000000
55,1,1.000000000000
56,1,0.000000000000
52,1,0.000000000000
*EQUATION
5
53,2,-1.000000000000
51,2,0.000000000000
55,2,1.000000000000
56,2,0.000000000000
52,2,0.000000000000
*EQUATION
5
54,1,-1.000000000000
51,1,0.000000000000
55,1,0.000000000000
56,1,1.000000000000
52,1,0.000000000000
*EQUATION
5
54,2,-1.000000000000
51,2,0.000000000000
55,2,0.000000000000
56,2,1.000000000000
52,2,0.000000000000
*EQUATION
5
57,1,-1.000000000000
55,1,0.000000000000
59,1,1.000000000000
60,1,0.000000000000
56,1,0.000000000000
*EQUATION
5
57,2,-1.000000000000
55,2,0.000000000000
59,2,1.000000000000
60,2,0.000000000000
56,2,0.000000000000
*EQUATION
5
58,1,-1.000000000000
55,1,0.000000000000
59,1,0.000000000000
60,1,1.000000000000
56,1,0.000000000000
*EQUATION
5
58,2,-1.000000000000
55,2,0.000000000000
59,2,0.000000000000
60,2,1.000000000000
56,2,0.000000000000
*EQUATION
5
61,1,-1.000000000000
59,1,0.000000000000
63,1,1.000000000000
64,1,0.000000000000
60,1,0.000000000000
*EQUATION
5
61,2,-1.000000000000
59,2,0.000000000000
63,2,1.000000000000
64,2,0.000000000000
60,2,0.000000000000
*EQUATION
5
62,1,-1.000000000000
59,1,0.000000000000
63,1,0.000000000000
64,1,1.000000000000
60,1,0.000000000000
*EQUATION
5
62,2,-1.000000000000
59,2,0.000000000000
63,2,0.000000000000
64,2,1.000000000000
60,2,0.000000000000
*EQUATION
5
65,1,-1.000000000000
63,1,0.000000000000
67,1,1.000000000000
68,1,0.000000000000
64,1,0.000000000000
*EQUATION
5
65,2,-1.000000000000
63,2,0.000000000000
67,2,1.000000000000
68,2,0.000000000000
64,2,0.000000000000
*EQUATION
5
66,1,-1.000000000000
63,1,0.000000000000
67,1,0.000000000000
68,1,1.000000000000
64,1,0.000000000000
*EQUATION
5
66,2,-1.000000000000
63,2,0.000000000000
67,2,0.000000000000
68,2,1.000000000000
64,2,0.000000000000
*EQUATION
5
69,1,-1.000000000000
67,1,0.000000000000
71,1,1.000000000000
72,1,0.000000000000
68,1,0.000000000000
*EQUATION
5
69,2,-1.000000000000
67,2,0.000000000000
71,2,1.000000000000
72,2,0.000000000000
68,2,0.000000000000
*EQUATION
5
70,1,-1.000000000000
67,1,0.000000000000
71,1,0.000000000000
72,1,1.000000000000
68,1,0.000000000000
*EQUATION
5
70,2,-1.000000000000
67,2,0.000000000000
71,2,0.000000000000
72,2,1.000000000000
68,2,0.000000000000
*EQUATION
5
73,1,-1.000000000000
71,1,0.000000000000
75,1,1.000000000000
76,1,0.000000000000
72,1,0.000000000000
*EQUATION
5
73,2,-1.000000000000
71,2,0.000000000000
75,2,1.000000000000
76,2,0.000000000000
72,2,0.000000000000
*EQUATION
5
74,1,-1.000000000000
71,1,0.000000000000
75,1,0.000000000000
76,1,1.000000000000
72,1,0.000000000000
*EQUATION
5
74,2,-1.000000000000
71,2,0.000000000000
75,2,0.000000000000
76,2,1.000000000000
72,2,0.000000000000
*EQUATION
5
77,1,-1.000000000000
75,1,0.000000000000
79,1,1.000000000000
80,1,0.000000000000
76,1,0.000000000000
*EQUATION
5
77,2,-1.000000000000
75,2,0.000000000000
79,2,1.000000000000
80,2,0.000000000000
76,2,0.000000000000
*EQUATION
5
78,1,-1.000000000000
75,1,0.000000000000
79,1,0.000000000000
80,1,1.000000000000
76,1,0.000000000000
*EQUATION
5
78,2,-1.000000000000
75,2,0.000000000000
79,2,0.000000000000
80,2,1.000000000000
76,2,0.000000000000
*EQUATION
5
81,1,-1.000000000000
79,1,0.000000000000
83,1,1.000000000000
84,1,0.000000000000
80,1,0.000000000000
*EQUATION
5
81,2,-1.000000000000
79,2,0.000000000000
83,2,1.000000000000
84,2,0.000000000000
80,2,0.000000000000
*EQUATION
5
82,1,-1.000000000000
79,1,0.000000000000
83,1,0.000000000000
84,1,1.000000000000
80,1,0.000000000000
*EQUATION
5
82,2,-1.000000000000
79,2,0.000000000000
83,2,0.000000000000
84,2,1.000000000000
80,2,0.000000000000
*EQUATION
5
1,11,-1.000000000000
5,11,1.000000000000
6,11,0.000000000000
7,11,0.000000000000
8,11,0.000000000000
*EQUATION
5
2,11,-1.000000000000
5,11,0.000000000000
6,11,1.000000000000
7,11,0.000000000000
8,11,0.000000000000
*EQUATION
5
3,11,-1.000000000000
5,11,0.000000000000
6,11,0.000000000000
7,11,1.000000000000
8,11,0.000000000000
*EQUATION
5
4,11,-1.000000000000
5,11,0.000000000000
6,11,0.000000000000
7,11,0.000000000000
8,11,1.000000000000
*EQUATION
5
9,11,-1.000000000000
6,11,0.000000000000
11,11,1.000000000000
12,11,0.000000000000
7,11,0.000000000000
*EQUATION
5
10,11,-1.000000000000
6,11,0.000000000000
11,11,0.000000000000
12,11,1.000000000000
7,11,0.000000000000
*EQUATION
5
13,11,-1.000000000000
11,11,0.000000000000
15,11,1.000000000000
16,11,0.000000000000
12,11,0.000000000000
*EQUATION
5
14,11,-1.000000000000
11,11,0.000000000000
15,11,0.000000000000
16,11,1.000000000000
12,11,0.000000000000
*EQUATION
5
17,11,-1.000000000000
15,11,0.000000000000
19,11,1.000000000000
20,11,0.000000000000
16,11,0.000000000000
*EQUATION
5
18,11,-1.000000000000
15,11,0.000000000000
19,11,0.000000000000
20,11,1.000000000000
16,11,0.000000000000
*EQUATION
5
21,11,-1.000000000000
19,11,0.000000000000
23,11,1.000000000000
24,11,0.000000000000
20,11,0.000000000000
*EQUATION
5
22,11,-1.000000000000
19,11,0.000000000000
23,11,0.000000000000
24,11,1.000000000000
20,11,0.000000000000
*EQUATION
5
25,11,-1.000000000000
23,11,0.000000000000
27,11,1.000000000000
28,11,0.000000000000
24,11,0.000000000000
*EQUATION
5
26,11,-1.000000000000
23,11,0.000000000000
27,11,0.000000000000
28,11,1.000000000000
24,11,0.000000000000
*EQUATION
5
29,11,-1.000000000000
27,11,0.000000000000
31,11,1.000000000000
32,11,0.000000000000
28,11,0.000000000000
*EQUATION
5
30,11,-1.000000000000
27,11,0.000000000000
31,11,0.000000000000
32,11,1.000000000000
28,11,0.000000000000
*EQUATION
5
33,11,-1.000000000000
31,11,0.000000000000
35,11,1.000000000000
36,11,0.000000000000
32,11,0.000000000000
*EQUATION
5
34,11,-1.000000000000
31,11,0.000000000000
35,11,0.000000000000
36,11,1.000000000000
32,11,0.000000000000
*EQUATION
5
37,11,-1.000000000000
35,11,0.000000000000
39,11,1.000000000000
40,11,0.000000000000
36,11,0.000000000000
*EQUATION
5
38,11,-1.000000000000
35,11,0.000000000000
39,11,0.000000000000
40,11,1.000000000000
36,11,0.000000000000
*EQUATION
5
41,11,-1.000000000000
39,11,0.000000000000
43,11,1.000000000000
44,11,0.000000000000
40,11,0.000000000000
*EQUATION
5
42,11,-1.000000000000
39,11,0.000000000000
43,11,0.000000000000
44,11,1.000000000000
40,11,0.000000000000
*EQUATION
5
45,11,-1.000000000000
43,11,0.000000000000
47,11,1.000000000000
48,11,0.000000000000
44,11,0.000000000000
*EQUATION
5
46,11,-1.000000000000
43,11,0.000000000000
47,11,0.000000000000
48,11,1.000000000000
44,11,0.000000000000
*EQUATION
5
49,11,-1.000000000000
47,11,0.000000000000
51,11,1.000000000000
52,11,0.000000000000
48,11,0.000000000000
*EQUATION
5
50,11,-1.000000000000
47,11,0.000000000000
51,11,0.000000000000
52,11,1.000000000000
48,11,0.000000000000
*EQUATION
5
53,11,-1.000000000000
51,11,0.000000000000
55,11,1.000000000000
56,11,0.000000000000
52,11,0.000000000000
*EQUATION
5
54,11,-1.000000000000
51,11,0.000000000000
55,11,0.000000000000
56,11,1.000000000000
52,11,0.000000000000
*EQUATION
5
57,11,-1.000000000000
55,11,0.000000000000
59,11,1.000000000000
60,11,0.000000000000
56,11,0.000000000000
*EQUATION
5
58,11,-1.000000000000
55,11,0.000000000000
59,11,0.000000000000
60,11,1.000000000000
56,11,0.000000000000
*EQUATION
5
61,11,-1.000000000000
59,11,0.000000000000
63,11,1.000000000000
64,11,0.000000000000
60,11,0.000000000000
*EQUATION
5
62,11,-1.000000000000
59,11,0.000000000000
63,11,0.000000000000
64,11,1.000000000000
60,11,0.000000000000
*EQUATION
5
65,11,-1.000000000000
63,11,0.000000000000
67,11,1.000000000000
68,11,0.000000000000
64,11,0.000000000000
*EQUATION
5
66,11,-1.000000000000
63,11,0.000000000000
67,11,0.000000000000
68,11,1.000000000000
64,11,0.000000000000
*EQUATION
5
69,11,-1.000000000000
67,11,0.000000000000
71,11,1.000000000000
72,11,0.000000000000
68,11,0.000000000000
*EQUATION
5
70,11,-1.000000000000
67,11,0.000000000000
71,11,0.000000000000
72,11,1.000000000000
68,11,0.000000000000
*EQUATION
5
73,11,-1.000000000000
71,11,0.000000000000
75,11,1.000000000000
76,11,0.000000000000
72,11,0.000000000000
*EQUATION
5
74,11,-1.000000000000
71,11,0.000000000000
75,11,0.000000000000
76,11,1.000000000000
72,11,0.000000000000
*EQUATION
5
77,11,-1.000000000000
75,11,0.000000000000
79,11,1.000000000000
80,11,0.000000000000
76,11,0.000000000000
*EQUATION
5
78,11,-1.000000000000
75,11,0.000000000000
79,11,0.000000000000
80,11,1.000000000000
76,11,0.000000000000
*EQUATION
5
81,11,-1.000000000000
79,11,0.000000000000
83,11,1.000000000000
84,11,0.000000000000
80,11,0.000000000000
*EQUATION
5
82,11,-1.000000000000
79,11,0.000000000000
83,11,0.000000000000
84,11,1.000000000000
80,11,0.000000000000
*NSET,NSET=Nup 
5, 
8, 
*NSET,NSET=Ndo 
83, 
84, 
*MATERIAL,NAME=WATER
*DENSITY
1.
*FLUID CONSTANTS
1.,1.
*CONDUCTIVITY
1.
*SOLID SECTION,ELSET=Eall,MATERIAL=WATER
*INITIAL CONDITIONS,TYPE=PRESSURE
Nall,1.
*INITIAL CONDITIONS,TYPE=FLUID VELOCITY
Nall,1,1.
Nall,2,0.
Nall,3,0.
*INITIAL CONDITIONS,TYPE=TEMPERATURE
Nall,1.
*STEP,INCF=5000
*CFD,STEADY STATE
*BOUNDARY
Ndo,1,2,0.
Nup,1,1,1.
Nup,2,2,0.
Nall,3,3,0.
Nall,8,8,1.
Ndo,11,11,1.
Nup,11,11,1.
*NODE PRINT,FREQUENCYF=5000,NSET=Nall
VF,TSF
*END STEP

