**
**   Structure: disk segment
**   Test objective: *COUPLING with *DISTRIBUTING and
**                   cyclic symmetry: axial load
**                   
*HEADING
Model: segment
*NODE, NSET=Nall
       1,2.000000000000e+01,1.000000000000e+00,-3.725290020906e-09
       2,2.000000000000e+01,9.250000000000e-01,-3.725290020906e-09
       3,2.000000000000e+01,9.170880000000e-01,1.207370000000e-01
       4,2.000000000000e+01,9.914470000000e-01,1.305260000000e-01
       5,1.000000000000e+01,1.000000000000e+00,-3.725290020906e-09
       6,1.000000000000e+01,9.250000000000e-01,-3.725290020906e-09
       7,1.000000000000e+01,9.170880000000e-01,1.207370000000e-01
       8,1.000000000000e+01,9.914470000000e-01,1.305260000000e-01
       9,2.000000000000e+01,9.625000000000e-01,-3.725290020906e-09
      10,2.000000000000e+01,9.230210000000e-01,6.049790000000e-02
      11,2.000000000000e+01,9.542680000000e-01,1.256310000000e-01
      12,2.000000000000e+01,9.978610000000e-01,6.540320000000e-02
      13,1.500000000000e+01,1.000000000000e+00,-3.725290020906e-09
      14,1.500000000000e+01,9.250000000000e-01,-3.725290020906e-09
      15,1.500000000000e+01,9.170880000000e-01,1.207370000000e-01
      16,1.500000000000e+01,9.914470000000e-01,1.305260000000e-01
      17,1.000000000000e+01,9.625000000000e-01,-3.725290020906e-09
      18,1.000000000000e+01,9.230210000000e-01,6.049790000000e-02
      19,1.000000000000e+01,9.542680000000e-01,1.256310000000e-01
      20,1.000000000000e+01,9.978610000000e-01,6.540320000000e-02
** ... 642 like lines cut
*ELEMENT, TYPE=C3D20, ELSET=Eall
     1,     1,     2,     3,     4,     5,     6,     7,     8,     9,    10,
          11,    12,    17,    18,    19,    20,    13,    14,    15,    16
     2,     2,    21,    22,     3,     6,    23,    24,     7,    25,    26,
          27,    10,    30,    31,    32,    18,    14,    28,    29,    15
     3,    21,    33,    34,    22,    23,    35,    36,    24,    37,    38,
          39,    26,    42,    43,    44,    31,    28,    40,    41,    29
     4,    33,    45,    46,    34,    35,    47,    48,    36,    49,    50,
          51,    38,    54,    55,    56,    43,    40,    52,    53,    41
     5,    45,    57,    58,    46,    47,    59,    60,    48,    61,    62,
          63,    50,    66,    67,    68,    55,    52,    64,    65,    53
     6,    57,    69,    70,    58,    59,    71,    72,    60,    73,    74,
          75,    62,    78,    79,    80,    67,    64,    76,    77,    65
     7,    69,    81,    82,    70,    71,    83,    84,    72,    85,    86,
          87,    74,    90,    91,    92,    79,    76,    88,    89,    77
     8,    81,    93,    94,    82,    83,    95,    96,    84,    97,    98,
          99,    86,   102,   103,   104,    91,    88,   100,   101,    89
     9,    93,   105,   106,    94,    95,   107,   108,    96,   109,   110,
         111,    98,   114,   115,   116,   103,   100,   112,   113,   101
    10,   105,   117,   118,   106,   107,   119,   120,   108,   121,   122,
         123,   110,   126,   127,   128,   115,   112,   124,   125,   113
** ... 172 like lines cut
*MATERIAL,NAME=EL
*ELASTIC
210000.,.3
*DENSITY
7.8E-9
*SOLID SECTION,ELSET=Eall,MATERIAL=EL
*NSET,NSET=Nleft 
1, 
153, 
145, 
129, 
133, 
117, 
121, 
105, 
109, 
93, 
97, 
81, 
85, 
69, 
73, 
57, 
61, 
45, 
49, 
33, 
** ... 81 like lines cut
*NSET,NSET=Nright 
523, 
612, 
600, 
590, 
593, 
583, 
586, 
576, 
579, 
569, 
572, 
562, 
565, 
555, 
558, 
548, 
551, 
541, 
544, 
534, 
** ... 81 like lines cut
** Names based on fix
*NSET,NSET=Nfix 
155, 
156, 
162, 
163, 
164, 
166, 
170, 
171, 
173, 
177, 
178, 
180, 
184, 
185, 
187, 
191, 
192, 
194, 
198, 
199, 
** ... 132 like lines cut
*BOUNDARY
Nfix,1,3
** Surfaces based on last
*SURFACE, NAME=Slast
1, S1
2, S1
25, S1
26, S1
3, S1
27, S1
4, S1
28, S1
5, S1
29, S1
6, S1
30, S1
7, S1
31, S1
8, S1
32, S1
9, S1
33, S1
10, S1
34, S1
** ... 28 like lines cut
*COUPLING,REF NODE=662,SURFACE=Slast,CONSTRAINT NAME=CN1
*DISTRIBUTING,CYCLIC SYMMETRY
*SURFACE,NAME=left,TYPE=NODE
Nleft
*SURFACE,NAME=right,TYPE=NODE
Nright
*TIE,CYCLIC SYMMETRY,POSITION TOLERANCE=1.,NAME=T1
left,right
*CYCLIC SYMMETRY MODEL,N=12,NGRAPH=1
0.,0.,0.,1.,0.,0.
*STEP
*STATIC
*CLOAD
662,1,1.
*NODE FILE
U
*END STEP
