**
**   Structure: cantilever beam.
**   Test objective: *COUPLING, *DISTRIBUTING for rotations.
**                   use of ORIENTATION on *COUPLING; axial force and torque
**                   (*CLOAD; no nlgeom)
**
*HEADING
Model: beam     Date: 10-Mar-1998
*NODE
       1,0.000000000000e+00,0.000000000000e+00,0.000000000000e+00
       2,8.571673007021e-01,0.000000000000e+00,-5.150380749101e-01
       3,1.007749860661e+00,9.563047559630e-01,-2.644266099712e-01
       4,1.505825599586e-01,9.563047559630e-01,2.506114649389e-01
       5,3.940266884308e+00,-2.338973637782e+00,6.557705330539e+00
       6,4.797434185010e+00,-2.338973637782e+00,6.042667255629e+00
       7,4.948016744969e+00,-1.382668881819e+00,6.293278720568e+00
       8,4.090849444267e+00,-1.382668881819e+00,6.808316795478e+00
       9,2.142918251755e-01,0.000000000000e+00,-1.287595187275e-01
      10,4.285836503511e-01,0.000000000000e+00,-2.575190374550e-01
      11,6.428754755266e-01,0.000000000000e+00,-3.862785561825e-01
      12,8.948129406918e-01,2.390761889908e-01,-4.523852086753e-01
      13,9.324585806814e-01,4.781523779815e-01,-3.897323424406e-01
      14,9.701042206710e-01,7.172285669723e-01,-3.270794762059e-01
      15,7.934580354852e-01,9.563047559630e-01,-1.356670912437e-01
      16,5.791662103096e-01,9.563047559630e-01,-6.907572516164e-03
      17,3.648743851341e-01,9.563047559630e-01,1.218519462113e-01
      18,1.129369199689e-01,7.172285669723e-01,1.879585987041e-01
      19,7.529127997928e-02,4.781523779815e-01,1.253057324694e-01
      20,3.764563998964e-02,2.390761889908e-01,6.265286623472e-02
** ... 242 like lines cut
*ELEMENT, TYPE=C3D20R, ELSET=Eall
     1,     1,    10,    95,    19,    61,   105,   222,   192,     9,    93,
          94,    20,   104,   220,   221,   193,    62,   103,   219,   190
     2,    10,     2,    13,    95,   105,    34,   134,   222,    11,    12,
          96,    93,   106,   133,   223,   220,   103,    33,   132,   219
     3,    19,    95,    16,     4,   192,   222,   163,    79,    94,    97,
          17,    18,   221,   224,   164,   191,   190,   219,   161,    78
     4,    95,    13,     3,    16,   222,   134,    64,   163,    96,    14,
          15,    97,   223,   135,   162,   224,   219,   132,    63,   161
     5,    61,   105,   222,   192,    59,   109,   228,   196,   104,   220,
         221,   193,   108,   226,   227,   197,    60,   107,   225,   194
     6,   105,    34,   134,   222,   109,    36,   138,   228,   106,   133,
         223,   220,   110,   137,   229,   226,   107,    35,   136,   225
     7,   192,   222,   163,    79,   196,   228,   167,    81,   221,   224,
         164,   191,   227,   230,   168,   195,   194,   225,   165,    80
     8,   222,   134,    64,   163,   228,   138,    66,   167,   223,   135,
         162,   224,   229,   139,   166,   230,   225,   136,    65,   165
     9,    59,   109,   228,   196,    57,   113,   234,   200,   108,   226,
         227,   197,   112,   232,   233,   201,    58,   111,   231,   198
    10,   109,    36,   138,   228,   113,    38,   142,   234,   110,   137,
         229,   226,   114,   141,   235,   232,   111,    37,   140,   231
** ... 44 like lines cut
*NSET, NSET=FIX
    97,    96,    95,    94,    93,    20,    19,    18,    17,    16,    15,
    14,    13,    12,    11,    10,     9,     4,     3,     2,     1
*BOUNDARY
FIX, 1
*BOUNDARY
FIX, 2
*BOUNDARY
FIX, 3
*MATERIAL,NAME=EL
*ELASTIC
  210000.0,        .3
*SOLID SECTION,ELSET=Eall,MATERIAL=EL
*NSET,NSET=LOAD
5,6,7,8,22,25,28,31,100
*SURFACE, NAME=S1
29,S2
30,S2
31,S2
32,S2
*ORIENTATION,NAME=OR1
0.857167,0.,-0.515038,0.150583,0.956305,0.250611
*COUPLING,REF NODE=262,SURFACE=S1,CONSTRAINT NAME=CN1,ORIENTATION=OR1
*DISTRIBUTING
6,6
*NSET,NSET=N1
262
*STEP
*STATIC
*CLOAD
262,3,7910.861
262,6,131.4474
*SECTION PRINT,SURFACE=S1,NAME=SP1
SOF,SOM
*END STEP
