**
**   Structure: cantilever beam.
**   Test objective: *COUPLING, *DISTRIBUTING for bending moment.
**                   cross section has L-shape
**
*HEADING
Model: beam     Date: 10-Mar-1998
*NODE
       1,0.000000000000e+00,0.000000000000e+00,0.000000000000e+00
       2,1.000000000000e+00,0.000000000000e+00,0.000000000000e+00
       3,1.000000000000e+00,1.000000000000e+00,0.000000000000e+00
       5,0.000000000000e+00,0.000000000000e+00,8.000000000000e+00
       6,1.000000000000e+00,0.000000000000e+00,8.000000000000e+00
       7,1.000000000000e+00,1.000000000000e+00,8.000000000000e+00
       9,2.500000000000e-01,0.000000000000e+00,0.000000000000e+00
      10,5.000000000000e-01,0.000000000000e+00,0.000000000000e+00
      11,7.500000000000e-01,0.000000000000e+00,0.000000000000e+00
      12,1.000000000000e+00,2.500000000000e-01,0.000000000000e+00
      13,1.000000000000e+00,5.000000000000e-01,0.000000000000e+00
      14,1.000000000000e+00,7.500000000000e-01,0.000000000000e+00
      15,7.500000000000e-01,1.000000000000e+00,0.000000000000e+00
      16,5.000000000000e-01,1.000000000000e+00,0.000000000000e+00
      19,0.000000000000e+00,5.000000000000e-01,0.000000000000e+00
      20,0.000000000000e+00,2.500000000000e-01,0.000000000000e+00
      21,2.500000000000e-01,0.000000000000e+00,8.000000000000e+00
      22,5.000000000000e-01,0.000000000000e+00,8.000000000000e+00
      23,7.500000000000e-01,0.000000000000e+00,8.000000000000e+00
      24,1.000000000000e+00,2.500000000000e-01,8.000000000000e+00
** ... 207 like lines cut
*ELEMENT, TYPE=C3D20R, ELSET=Eall
     1,     1,    10,    95,    19,    61,   105,   222,   192,     9,    93,
          94,    20,   104,   220,   221,   193,    62,   103,   219,   190
     2,    10,     2,    13,    95,   105,    34,   134,   222,    11,    12,
          96,    93,   106,   133,   223,   220,   103,    33,   132,   219
     4,    95,    13,     3,    16,   222,   134,    64,   163,    96,    14,
          15,    97,   223,   135,   162,   224,   219,   132,    63,   161
     5,    61,   105,   222,   192,    59,   109,   228,   196,   104,   220,
         221,   193,   108,   226,   227,   197,    60,   107,   225,   194
     6,   105,    34,   134,   222,   109,    36,   138,   228,   106,   133,
         223,   220,   110,   137,   229,   226,   107,    35,   136,   225
     8,   222,   134,    64,   163,   228,   138,    66,   167,   223,   135,
         162,   224,   229,   139,   166,   230,   225,   136,    65,   165
     9,    59,   109,   228,   196,    57,   113,   234,   200,   108,   226,
         227,   197,   112,   232,   233,   201,    58,   111,   231,   198
    10,   109,    36,   138,   228,   113,    38,   142,   234,   110,   137,
         229,   226,   114,   141,   235,   232,   111,    37,   140,   231
    12,   228,   138,    66,   167,   234,   142,    68,   171,   229,   139,
         166,   230,   235,   143,   170,   236,   231,   140,    67,   169
    13,    57,   113,   234,   200,    55,   117,   240,   204,   112,   232,
         233,   201,   116,   238,   239,   205,    56,   115,   237,   202
** ... 28 like lines cut
*NSET, NSET=FIX
    97,    96,    95,    94,    93,    20,    19,         16,    15,
    14,    13,    12,    11,    10,     9,         3,     2,     1
*BOUNDARY
FIX, 1
*BOUNDARY
FIX, 2
*BOUNDARY
FIX, 3
*MATERIAL,NAME=EL
*ELASTIC
  210000.0,        .3
*SOLID SECTION,ELSET=Eall,MATERIAL=EL
*SURFACE, NAME=S1
29,S2
30,S2
32,S2
*COUPLING,REF NODE=262,SURFACE=S1,CONSTRAINT NAME=CN1
*DISTRIBUTING
4,4
*NSET,NSET=N1
262
*STEP
*STATIC
*CLOAD
262,4,131.4474
*SECTION PRINT,SURFACE=S1,NAME=SP1
SOF,SOM
*END STEP
