**
**   Structure: fluid flow between two cylinders.
**   Test objective: incompressible Couette flow with fixed
**                   wall temperature: cyclic boundary conditions
**                   pressure at the outside: 2.5
**                   max temperature: 1.5
**                   results (especially pressure) not axisymmetric
**                   
*NODE, NSET=Nall
       1,1.000000000000e+00,0.000000000000e+00,-1.000000000000e+00
       2,8.750000000000e-01,0.000000000000e+00,-1.000000000000e+00
       3,8.581871203528e-01,-1.707040317641e-01,-1.000000000000e+00
       4,9.807852804032e-01,-1.950903220161e-01,-1.000000000000e+00
       5,1.000000000000e+00,0.000000000000e+00,0.000000000000e+00
       6,8.750000000000e-01,0.000000000000e+00,0.000000000000e+00
       7,8.581871203528e-01,-1.707040317641e-01,0.000000000000e+00
       8,9.807852804032e-01,-1.950903220161e-01,0.000000000000e+00
       9,8.083945909474e-01,-3.348480033195e-01,-1.000000000000e+00
      10,9.238795325113e-01,-3.826834323651e-01,-1.000000000000e+00
      11,8.083945909474e-01,-3.348480033195e-01,0.000000000000e+00
      12,9.238795325113e-01,-3.826834323651e-01,0.000000000000e+00
      13,7.275359107647e-01,-4.861239538922e-01,-1.000000000000e+00
      14,8.314696123025e-01,-5.555702330196e-01,-1.000000000000e+00
      15,7.275359107647e-01,-4.861239538922e-01,0.000000000000e+00
      16,8.314696123025e-01,-5.555702330196e-01,0.000000000000e+00
      17,7.500000000000e-01,0.000000000000e+00,-1.000000000000e+00
      18,7.355889603024e-01,-1.463177415121e-01,-1.000000000000e+00
      19,7.500000000000e-01,0.000000000000e+00,0.000000000000e+00
      20,7.355889603024e-01,-1.463177415121e-01,0.000000000000e+00
** ... 20 like lines cut
*ELEMENT, TYPE=F3D8, ELSET=Eall
     1,     1,     2,     3,     4,     5,     6,     7,     8
     2,     4,     3,     9,    10,     8,     7,    11,    12
     3,    10,     9,    13,    14,    12,    11,    15,    16
     4,     2,    17,    18,     3,     6,    19,    20,     7
     5,     3,    18,    21,     9,     7,    20,    22,    11
     6,     9,    21,    23,    13,    11,    22,    24,    15
     7,    17,    25,    26,    18,    19,    27,    28,    20
     8,    18,    26,    29,    21,    20,    28,    30,    22
     9,    21,    29,    31,    23,    22,    30,    32,    24
    10,    25,    33,    34,    26,    27,    35,    36,    28
    11,    26,    34,    37,    29,    28,    36,    38,    30
    12,    29,    37,    39,    31,    30,    38,    40,    32
** Names based on in
*NSET,NSET=Nin 
33, 
34, 
35, 
36, 
37, 
38, 
** Names based on out
*NSET,NSET=Nout 
1, 
4, 
5, 
8, 
10, 
12, 
** Names based on dep
*NSET,NSET=Ndep 
13, 
14, 
15, 
16, 
23, 
24, 
31, 
32, 
39, 
40, 
** Names based on ind
*NSET,NSET=Nind 
1, 
2, 
5, 
6, 
17, 
19, 
25, 
27, 
33, 
35, 
** Names based on fixz
*NSET,NSET=Nfixz 
1, 
2, 
3, 
4, 
5, 
6, 
7, 
8, 
9, 
10, 
11, 
12, 
17, 
18, 
19, 
20, 
21, 
22, 
25, 
26, 
** ... 10 like lines cut
*SURFACE,NAME=left,TYPE=NODE
Ndep
*SURFACE,NAME=right,TYPE=NODE
Nind
*TIE,CYCLIC SYMMETRY,POSITION TOLERANCE=1.,NAME=T1
left,right
*CYCLIC SYMMETRY MODEL,N=10.66666666,NGRAPH=1
0.,0.,0.,0.,0.,1.
*MATERIAL,NAME=WATER
*DENSITY
1.
*FLUID CONSTANTS
1.,1.
*CONDUCTIVITY
1.
*SOLID SECTION,ELSET=Eall,MATERIAL=WATER
*INITIAL CONDITIONS,TYPE=PRESSURE
Nall,1.
*INITIAL CONDITIONS,TYPE=FLUID VELOCITY
Nall,1,0.
Nall,2,0.
Nall,3,0.
*INITIAL CONDITIONS,TYPE=TEMPERATURE
Nall,1.
*TRANSFORM,TYPE=C,NSET=Nin
0.,0.,0.,0.,0.,1.
*TRANSFORM,TYPE=C,NSET=Nout
0.,0.,0.,0.,0.,1.
*NSET,NSET=Nrad
36,28,20,7,8
*STEP,INCF=5000
*CFD,STEADY STATE
1.,1.,,,2.,
*BOUNDARY
Nfixz,3,3,0.
Nin,1,1,0.
Nin,2,2,2.
Nout,1,1,0.
Nout,2,2,1.
Nout,11,11,1.
Nin,8,8,1.
Nin,11,11,1.
*NODE FILE,FREQUENCYF=5000
VF,PSF,TSF
*END STEP
