**
**   Structure: fluid flow between two cylinders.
**   Test objective: incompressible Couette flow with fixed
**                   wall temperature: cyclic boundary conditions
**                   pressure at the outside: 2.5
**                   max temperature: 1.5
**                   only applying cyclic conditions at the boundaries
**                   of the 33.75 degrees segment leads to a non-
**                   axisymmetric result.
**                   
*NODE, NSET=Nall
       1,1.000000000000e+00,0.000000000000e+00,-1.000000000000e+00
       2,8.750000000000e-01,0.000000000000e+00,-1.000000000000e+00
       3,8.581871203528e-01,-1.707040317641e-01,-1.000000000000e+00
       4,9.807852804032e-01,-1.950903220161e-01,-1.000000000000e+00
       5,1.000000000000e+00,0.000000000000e+00,0.000000000000e+00
       6,8.750000000000e-01,0.000000000000e+00,0.000000000000e+00
       7,8.581871203528e-01,-1.707040317641e-01,0.000000000000e+00
       8,9.807852804032e-01,-1.950903220161e-01,0.000000000000e+00
       9,8.083945909474e-01,-3.348480033195e-01,-1.000000000000e+00
      10,9.238795325113e-01,-3.826834323651e-01,-1.000000000000e+00
      11,8.083945909474e-01,-3.348480033195e-01,0.000000000000e+00
      12,9.238795325113e-01,-3.826834323651e-01,0.000000000000e+00
      13,7.275359107647e-01,-4.861239538922e-01,-1.000000000000e+00
      14,8.314696123025e-01,-5.555702330196e-01,-1.000000000000e+00
      15,7.275359107647e-01,-4.861239538922e-01,0.000000000000e+00
      16,8.314696123025e-01,-5.555702330196e-01,0.000000000000e+00
      17,7.500000000000e-01,0.000000000000e+00,-1.000000000000e+00
      18,7.355889603024e-01,-1.463177415121e-01,-1.000000000000e+00
      19,7.500000000000e-01,0.000000000000e+00,0.000000000000e+00
      20,7.355889603024e-01,-1.463177415121e-01,0.000000000000e+00
** ... 20 like lines cut
*ELEMENT, TYPE=F3D8, ELSET=Eall
     1,     1,     2,     3,     4,     5,     6,     7,     8
     2,     4,     3,     9,    10,     8,     7,    11,    12
     3,    10,     9,    13,    14,    12,    11,    15,    16
     4,     2,    17,    18,     3,     6,    19,    20,     7
     5,     3,    18,    21,     9,     7,    20,    22,    11
     6,     9,    21,    23,    13,    11,    22,    24,    15
     7,    17,    25,    26,    18,    19,    27,    28,    20
     8,    18,    26,    29,    21,    20,    28,    30,    22
     9,    21,    29,    31,    23,    22,    30,    32,    24
    10,    25,    33,    34,    26,    27,    35,    36,    28
    11,    26,    34,    37,    29,    28,    36,    38,    30
    12,    29,    37,    39,    31,    30,    38,    40,    32
*NSET,NSET=Nin 
34, 
36, 
*NSET,NSET=Nout 
4, 
8, 
*EQUATION
2
1,1,1.000000000000, 4,1,-1.000000000000 
*EQUATION
2
2,1,1.000000000000, 3,1,-1.000000000000 
*EQUATION
2
5,1,1.000000000000, 8,1,-1.000000000000 
*EQUATION
2
6,1,1.000000000000, 7,1,-1.000000000000 
*EQUATION
2
17,1,1.000000000000, 18,1,-1.000000000000 
*EQUATION
2
19,1,1.000000000000, 20,1,-1.000000000000 
*EQUATION
2
25,1,1.000000000000, 26,1,-1.000000000000 
*EQUATION
2
27,1,1.000000000000, 28,1,-1.000000000000 
*EQUATION
2
33,1,1.000000000000, 34,1,-1.000000000000 
*EQUATION
2
35,1,1.000000000000, 36,1,-1.000000000000 
*EQUATION
2
9,1,1.000000000000, 3,1,-1.000000000000 
*EQUATION
2
10,1,1.000000000000, 4,1,-1.000000000000 
*EQUATION
2
11,1,1.000000000000, 7,1,-1.000000000000 
*EQUATION
2
12,1,1.000000000000, 8,1,-1.000000000000 
*EQUATION
2
21,1,1.000000000000, 18,1,-1.000000000000 
*EQUATION
2
22,1,1.000000000000, 20,1,-1.000000000000 
*EQUATION
2
29,1,1.000000000000, 26,1,-1.000000000000 
*EQUATION
2
30,1,1.000000000000, 28,1,-1.000000000000 
*EQUATION
2
37,1,1.000000000000, 34,1,-1.000000000000 
*EQUATION
2
38,1,1.000000000000, 36,1,-1.000000000000 
*EQUATION
2
13,1,1.000000000000, 9,1,-1.000000000000 
*EQUATION
2
14,1,1.000000000000, 10,1,-1.000000000000 
*EQUATION
2
15,1,1.000000000000, 11,1,-1.000000000000 
*EQUATION
2
16,1,1.000000000000, 12,1,-1.000000000000 
*EQUATION
2
23,1,1.000000000000, 21,1,-1.000000000000 
*EQUATION
2
24,1,1.000000000000, 22,1,-1.000000000000 
*EQUATION
2
31,1,1.000000000000, 29,1,-1.000000000000 
*EQUATION
2
32,1,1.000000000000, 30,1,-1.000000000000 
*EQUATION
2
39,1,1.000000000000, 37,1,-1.000000000000 
*EQUATION
2
40,1,1.000000000000, 38,1,-1.000000000000 
*EQUATION
2
1,2,1.000000000000, 4,2,-1.000000000000 
*EQUATION
2
2,2,1.000000000000, 3,2,-1.000000000000 
*EQUATION
2
5,2,1.000000000000, 8,2,-1.000000000000 
*EQUATION
2
6,2,1.000000000000, 7,2,-1.000000000000 
*EQUATION
2
17,2,1.000000000000, 18,2,-1.000000000000 
*EQUATION
2
19,2,1.000000000000, 20,2,-1.000000000000 
*EQUATION
2
25,2,1.000000000000, 26,2,-1.000000000000 
*EQUATION
2
27,2,1.000000000000, 28,2,-1.000000000000 
*EQUATION
2
33,2,1.000000000000, 34,2,-1.000000000000 
*EQUATION
2
35,2,1.000000000000, 36,2,-1.000000000000 
*EQUATION
2
9,2,1.000000000000, 3,2,-1.000000000000 
*EQUATION
2
10,2,1.000000000000, 4,2,-1.000000000000 
*EQUATION
2
11,2,1.000000000000, 7,2,-1.000000000000 
*EQUATION
2
12,2,1.000000000000, 8,2,-1.000000000000 
*EQUATION
2
21,2,1.000000000000, 18,2,-1.000000000000 
*EQUATION
2
22,2,1.000000000000, 20,2,-1.000000000000 
*EQUATION
2
29,2,1.000000000000, 26,2,-1.000000000000 
*EQUATION
2
30,2,1.000000000000, 28,2,-1.000000000000 
*EQUATION
2
37,2,1.000000000000, 34,2,-1.000000000000 
*EQUATION
2
38,2,1.000000000000, 36,2,-1.000000000000 
*EQUATION
2
13,2,1.000000000000, 9,2,-1.000000000000 
*EQUATION
2
14,2,1.000000000000, 10,2,-1.000000000000 
*EQUATION
2
15,2,1.000000000000, 11,2,-1.000000000000 
*EQUATION
2
16,2,1.000000000000, 12,2,-1.000000000000 
*EQUATION
2
23,2,1.000000000000, 21,2,-1.000000000000 
*EQUATION
2
24,2,1.000000000000, 22,2,-1.000000000000 
*EQUATION
2
31,2,1.000000000000, 29,2,-1.000000000000 
*EQUATION
2
32,2,1.000000000000, 30,2,-1.000000000000 
*EQUATION
2
39,2,1.000000000000, 37,2,-1.000000000000 
*EQUATION
2
40,2,1.000000000000, 38,2,-1.000000000000 
*EQUATION
2
1,11,1.000000000000, 4,11,-1.000000000000 
*EQUATION
2
2,11,1.000000000000, 3,11,-1.000000000000 
*EQUATION
2
5,11,1.000000000000, 8,11,-1.000000000000 
*EQUATION
2
6,11,1.000000000000, 7,11,-1.000000000000 
*EQUATION
2
17,11,1.000000000000, 18,11,-1.000000000000 
*EQUATION
2
19,11,1.000000000000, 20,11,-1.000000000000 
*EQUATION
2
25,11,1.000000000000, 26,11,-1.000000000000 
*EQUATION
2
27,11,1.000000000000, 28,11,-1.000000000000 
*EQUATION
2
33,11,1.000000000000, 34,11,-1.000000000000 
*EQUATION
2
35,11,1.000000000000, 36,11,-1.000000000000 
*EQUATION
2
9,11,1.000000000000, 3,11,-1.000000000000 
*EQUATION
2
10,11,1.000000000000, 4,11,-1.000000000000 
*EQUATION
2
11,11,1.000000000000, 7,11,-1.000000000000 
*EQUATION
2
12,11,1.000000000000, 8,11,-1.000000000000 
*EQUATION
2
21,11,1.000000000000, 18,11,-1.000000000000 
*EQUATION
2
22,11,1.000000000000, 20,11,-1.000000000000 
*EQUATION
2
29,11,1.000000000000, 26,11,-1.000000000000 
*EQUATION
2
30,11,1.000000000000, 28,11,-1.000000000000 
*EQUATION
2
37,11,1.000000000000, 34,11,-1.000000000000 
*EQUATION
2
38,11,1.000000000000, 36,11,-1.000000000000 
*EQUATION
2
13,11,1.000000000000, 9,11,-1.000000000000 
*EQUATION
2
14,11,1.000000000000, 10,11,-1.000000000000 
*EQUATION
2
15,11,1.000000000000, 11,11,-1.000000000000 
*EQUATION
2
16,11,1.000000000000, 12,11,-1.000000000000 
*EQUATION
2
23,11,1.000000000000, 21,11,-1.000000000000 
*EQUATION
2
24,11,1.000000000000, 22,11,-1.000000000000 
*EQUATION
2
31,11,1.000000000000, 29,11,-1.000000000000 
*EQUATION
2
32,11,1.000000000000, 30,11,-1.000000000000 
*EQUATION
2
39,11,1.000000000000, 37,11,-1.000000000000 
*EQUATION
2
40,11,1.000000000000, 38,11,-1.000000000000 
*EQUATION
2
1,8,1.000000000000, 4,8,-1.000000000000 
*EQUATION
2
2,8,1.000000000000, 3,8,-1.000000000000 
*EQUATION
2
5,8,1.000000000000, 8,8,-1.000000000000 
*EQUATION
2
6,8,1.000000000000, 7,8,-1.000000000000 
*EQUATION
2
17,8,1.000000000000, 18,8,-1.000000000000 
*EQUATION
2
19,8,1.000000000000, 20,8,-1.000000000000 
*EQUATION
2
25,8,1.000000000000, 26,8,-1.000000000000 
*EQUATION
2
27,8,1.000000000000, 28,8,-1.000000000000 
*EQUATION
2
33,8,1.000000000000, 34,8,-1.000000000000 
*EQUATION
2
35,8,1.000000000000, 36,8,-1.000000000000 
*EQUATION
2
9,8,1.000000000000, 3,8,-1.000000000000 
*EQUATION
2
10,8,1.000000000000, 4,8,-1.000000000000 
*EQUATION
2
11,8,1.000000000000, 7,8,-1.000000000000 
*EQUATION
2
12,8,1.000000000000, 8,8,-1.000000000000 
*EQUATION
2
21,8,1.000000000000, 18,8,-1.000000000000 
*EQUATION
2
22,8,1.000000000000, 20,8,-1.000000000000 
*EQUATION
2
29,8,1.000000000000, 26,8,-1.000000000000 
*EQUATION
2
30,8,1.000000000000, 28,8,-1.000000000000 
*EQUATION
2
37,8,1.000000000000, 34,8,-1.000000000000 
*EQUATION
2
38,8,1.000000000000, 36,8,-1.000000000000 
*EQUATION
2
13,8,1.000000000000, 9,8,-1.000000000000 
*EQUATION
2
14,8,1.000000000000, 10,8,-1.000000000000 
*EQUATION
2
15,8,1.000000000000, 11,8,-1.000000000000 
*EQUATION
2
16,8,1.000000000000, 12,8,-1.000000000000 
*EQUATION
2
23,8,1.000000000000, 21,8,-1.000000000000 
*EQUATION
2
24,8,1.000000000000, 22,8,-1.000000000000 
*EQUATION
2
31,8,1.000000000000, 29,8,-1.000000000000 
*EQUATION
2
32,8,1.000000000000, 30,8,-1.000000000000 
*EQUATION
2
39,8,1.000000000000, 37,8,-1.000000000000 
*EQUATION
2
40,8,1.000000000000, 38,8,-1.000000000000 
*MATERIAL,NAME=WATER
*DENSITY
1.
*FLUID CONSTANTS
1.,1.
*CONDUCTIVITY
1.
*SOLID SECTION,ELSET=Eall,MATERIAL=WATER
*INITIAL CONDITIONS,TYPE=PRESSURE
Nall,1.
*INITIAL CONDITIONS,TYPE=FLUID VELOCITY
Nall,1,0.
Nall,2,0.
Nall,3,0.
*INITIAL CONDITIONS,TYPE=TEMPERATURE
Nall,1.
*TRANSFORM,TYPE=C,NSET=Nall
0.,0.,0.,0.,0.,1.
*NSET,NSET=Nrad
36,28,20,7,8
*STEP,INCF=500
*CFD,STEADY STATE
*BOUNDARY
Nall,3,3,0.
Nin,1,1,0.
Nin,2,2,2.
Nout,1,1,0.
Nout,2,2,1.
Nin,8,8,1.
Nin,11,11,1.
Nout,11,11,1.
*NODE PRINT,FREQUENCYF=500,NSET=Nrad
VF,PSF,TSF
*NODE FILE
VF,PSF,TSF
*END STEP
