**
**   Structure: fluid flow between two cylinders.
**   Test objective: compressible Couette flow with fixed
**                   wall temperature: cyclic boundary conditions
**                   pressure at the outside: > 15 (is reached after
**                   20,000 iterations)
**                   max temperature: 1.5
**                   
*NODE, NSET=Nall
       1,1.000000000000e+00,0.000000000000e+00,-1.000000000000e+00
       2,8.750000000000e-01,0.000000000000e+00,-1.000000000000e+00
       3,8.581871203528e-01,-1.707040317641e-01,-1.000000000000e+00
       4,9.807852804032e-01,-1.950903220161e-01,-1.000000000000e+00
       5,1.000000000000e+00,0.000000000000e+00,0.000000000000e+00
       6,8.750000000000e-01,0.000000000000e+00,0.000000000000e+00
       7,8.581871203528e-01,-1.707040317641e-01,0.000000000000e+00
       8,9.807852804032e-01,-1.950903220161e-01,0.000000000000e+00
      17,7.500000000000e-01,0.000000000000e+00,-1.000000000000e+00
      18,7.355889603024e-01,-1.463177415121e-01,-1.000000000000e+00
      19,7.500000000000e-01,0.000000000000e+00,0.000000000000e+00
      20,7.355889603024e-01,-1.463177415121e-01,0.000000000000e+00
      25,6.250000000000e-01,0.000000000000e+00,-1.000000000000e+00
      26,6.129908002520e-01,-1.219314512601e-01,-1.000000000000e+00
      27,6.250000000000e-01,0.000000000000e+00,0.000000000000e+00
      28,6.129908002520e-01,-1.219314512601e-01,0.000000000000e+00
      33,5.000000000000e-01,0.000000000000e+00,-1.000000000000e+00
      34,4.903926402016e-01,-9.754516100806e-02,-1.000000000000e+00
      35,5.000000000000e-01,0.000000000000e+00,0.000000000000e+00
      36,4.903926402016e-01,-9.754516100806e-02,0.000000000000e+00
*ELEMENT, TYPE=F3D8, ELSET=Eall
     1,     1,     2,     3,     4,     5,     6,     7,     8
     4,     2,    17,    18,     3,     6,    19,    20,     7
     7,    17,    25,    26,    18,    19,    27,    28,    20
    10,    25,    33,    34,    26,    27,    35,    36,    28
** cycmpc based on set dep indep
*EQUATION
2
1,8,1.000000000000, 4,8,-1.000000000000 
*EQUATION
2
2,8,1.000000000000, 3,8,-1.000000000000 
*EQUATION
2
5,8,1.000000000000, 8,8,-1.000000000000 
*EQUATION
2
6,8,1.000000000000, 7,8,-1.000000000000 
*EQUATION
2
17,8,1.000000000000, 18,8,-1.000000000000 
*EQUATION
2
19,8,1.000000000000, 20,8,-1.000000000000 
*EQUATION
2
25,8,1.000000000000, 26,8,-1.000000000000 
*EQUATION
2
27,8,1.000000000000, 28,8,-1.000000000000 
*EQUATION
2
33,8,1.000000000000, 34,8,-1.000000000000 
*EQUATION
2
35,8,1.000000000000, 36,8,-1.000000000000 
** cycmpc based on set dep indep
*EQUATION
2
1,11,1.000000000000, 4,11,-1.000000000000 
*EQUATION
2
2,11,1.000000000000, 3,11,-1.000000000000 
*EQUATION
2
5,11,1.000000000000, 8,11,-1.000000000000 
*EQUATION
2
6,11,1.000000000000, 7,11,-1.000000000000 
*EQUATION
2
17,11,1.000000000000, 18,11,-1.000000000000 
*EQUATION
2
19,11,1.000000000000, 20,11,-1.000000000000 
*EQUATION
2
25,11,1.000000000000, 26,11,-1.000000000000 
*EQUATION
2
27,11,1.000000000000, 28,11,-1.000000000000 
*EQUATION
2
33,11,1.000000000000, 34,11,-1.000000000000 
*EQUATION
2
35,11,1.000000000000, 36,11,-1.000000000000 
** cycmpc based on set dep indep
*EQUATION
3
1,1,1.000000000000, 4,1,-0.980785280403, 4,2,0.195090322016
*EQUATION
3
1,2,1.000000000000, 4,1,-0.195090322016, 4,2,-0.980785280403
*EQUATION
3
2,1,1.000000000000, 3,1,-0.980785280403, 3,2,0.195090322016
*EQUATION
3
2,2,1.000000000000, 3,1,-0.195090322016, 3,2,-0.980785280403
*EQUATION
3
5,1,1.000000000000, 8,1,-0.980785280403, 8,2,0.195090322016
*EQUATION
3
5,2,1.000000000000, 8,1,-0.195090322016, 8,2,-0.980785280403
*EQUATION
3
6,1,1.000000000000, 7,1,-0.980785280403, 7,2,0.195090322016
*EQUATION
3
6,2,1.000000000000, 7,1,-0.195090322016, 7,2,-0.980785280403
*EQUATION
3
17,1,1.000000000000, 18,1,-0.980785280403, 18,2,0.195090322016
*EQUATION
3
17,2,1.000000000000, 18,1,-0.195090322016, 18,2,-0.980785280403
*EQUATION
3
19,1,1.000000000000, 20,1,-0.980785280403, 20,2,0.195090322016
*EQUATION
3
19,2,1.000000000000, 20,1,-0.195090322016, 20,2,-0.980785280403
*EQUATION
3
25,1,1.000000000000, 26,1,-0.980785280403, 26,2,0.195090322016
*EQUATION
3
25,2,1.000000000000, 26,1,-0.195090322016, 26,2,-0.980785280403
*EQUATION
3
27,1,1.000000000000, 28,1,-0.980785280403, 28,2,0.195090322016
*EQUATION
3
27,2,1.000000000000, 28,1,-0.195090322016, 28,2,-0.980785280403
*EQUATION
3
33,1,1.000000000000, 34,1,-0.980785280403, 34,2,0.195090322016
*EQUATION
3
33,2,1.000000000000, 34,1,-0.195090322016, 34,2,-0.980785280403
*EQUATION
3
35,1,1.000000000000, 36,1,-0.980785280403, 36,2,0.195090322016
*EQUATION
3
35,2,1.000000000000, 36,1,-0.195090322016, 36,2,-0.980785280403
*NSET,NSET=Nin 
34, 
36, 
*NSET,NSET=Nout 
4, 
8, 
*MATERIAL,NAME=AIR
*FLUID CONSTANTS
1.,1.,1.
*CONDUCTIVITY
1.
*SPECIFIC GAS CONSTANT
0.285714286d0
*SOLID SECTION,ELSET=Eall,MATERIAL=AIR
*PHYSICAL CONSTANTS,ABSOLUTE ZERO=0.
*INITIAL CONDITIONS,TYPE=PRESSURE
Nall,1.
*INITIAL CONDITIONS,TYPE=FLUID VELOCITY
Nall,1,0.
Nall,2,0.
Nall,3,0.
*INITIAL CONDITIONS,TYPE=TEMPERATURE
Nall,1.
*NSET,NSET=Nrad
36,28,20,7,8
*STEP,INCF=2000,SHOCK SMOOTHING=0.005
*CFD,STEADY STATE,COMPRESSIBLE
*BOUNDARY
Nall,3,3,0.
34,1,1,0.3902
36,1,1,0.3902
34,2,2,1.9616
36,2,2,1.9616
4,1,1,0.1951
8,1,1,0.1951
4,2,2,0.9808
8,2,2,0.9808
Nin,8,8,1.
Nin,11,11,1.
Nout,11,11,1.
*NODE PRINT,FREQUENCYF=2000,NSET=Nrad
VF,PSF,TSF
*END STEP
