**
**   Structure: corner crack specimen.
**   Test objective: crack propagation; cumulative length.
**
*NODE, NSET=Nall
       1,-2.000000000000e-01,-1.000000000000e-01,2.000000000000e+00
       2,-6.000000000000e-02,-1.000000000000e-01,2.000000000000e+00
       3,-2.000000000000e-01,-2.500000000000e-02,2.000000000000e+00
       4,-6.000000000000e-02,-2.500000000000e-02,2.000000000000e+00
       5,-2.000000000000e-01,5.000000000000e-02,2.000000000000e+00
       6,-6.000000000000e-02,5.000000000000e-02,2.000000000000e+00
       7,-2.000000000000e-01,1.250000000000e-01,2.000000000000e+00
       8,-6.000000000000e-02,1.250000000000e-01,2.000000000000e+00
       9,-2.000000000000e-01,2.000000000000e-01,2.000000000000e+00
      10,-6.000000000000e-02,2.000000000000e-01,2.000000000000e+00
      11,8.000000000000e-02,-1.000000000000e-01,2.000000000000e+00
      12,8.000000000000e-02,-2.500000000000e-02,2.000000000000e+00
      13,8.000000000000e-02,5.000000000000e-02,2.000000000000e+00
      14,8.000000000000e-02,1.250000000000e-01,2.000000000000e+00
      15,8.000000000000e-02,2.000000000000e-01,2.000000000000e+00
      16,2.200000000000e-01,-1.000000000000e-01,2.000000000000e+00
      17,2.200000000000e-01,-2.500000000000e-02,2.000000000000e+00
      18,2.200000000000e-01,5.000000000000e-02,2.000000000000e+00
      19,2.200000000000e-01,1.250000000000e-01,2.000000000000e+00
      20,2.200000000000e-01,2.000000000000e-01,2.000000000000e+00
** ... 10052 like lines cut
*ELEMENT, TYPE=S3, ELSET=Eshell
     1,     1,      2,      3 
     2,     3,      2,      4 
     3,     3,      4,      5 
     4,     5,      4,      6 
     5,     5,      6,      7 
     6,     7,      6,      8 
     7,     7,      8,      9 
     8,     9,      8,     10 
     9,     2,     11,      4 
    10,     4,     11,     12 
    11,     4,     12,      6 
    12,     6,     12,     13 
    13,     6,     13,      8 
    14,     8,     13,     14 
    15,     8,     14,     10 
    16,    10,     14,     15 
    17,    11,     16,     12 
    18,    12,     16,     17 
    19,    12,     17,     13 
    20,    13,     17,     18 
** ... 60 like lines cut
*ELEMENT, TYPE=C3D20, ELSET=Evol
    81,    56,    57,    58,    59,    60,    61,    62,    63,    64,    65,
          66,    67,    72,    73,    74,    75,    68,    69,    70,    71
    82,    59,    58,    76,    77,    63,    62,    78,    79,    66,    80,
          81,    82,    74,    85,    86,    87,    71,    70,    83,    84
    83,    77,    76,    88,    89,    79,    78,    90,    91,    81,    92,
          93,    94,    86,    97,    98,    99,    84,    83,    95,    96
    84,    89,    88,   100,   101,    91,    90,   102,   103,    93,   104,
         105,   106,    98,   109,   110,   111,    96,    95,   107,   108
    85,   101,   100,   112,   113,   103,   102,   114,   115,   105,   116,
         117,   118,   110,   121,   122,   123,   108,   107,   119,   120
    86,   113,   112,   124,   125,   115,   114,   126,   127,   117,   128,
         129,   130,   122,   133,   134,   135,   120,   119,   131,   132
    87,   125,   124,   136,   137,   127,   126,   138,   139,   129,   140,
         141,   142,   134,   145,   146,   147,   132,   131,   143,   144
    88,   137,   136,   148,   149,   139,   138,   150,   151,   141,   152,
         153,   154,   146,   157,   158,   159,   144,   143,   155,   156
    89,   149,   148,   160,   161,   151,   150,   162,   163,   153,   164,
         165,   166,   158,   169,   170,   171,   156,   155,   167,   168
    90,   161,   160,   172,   173,   163,   162,   174,   175,   165,   176,
         177,   178,   170,   181,   182,   183,   168,   167,   179,   180
** ... 4076 like lines cut
** Names based on fix
*NSET,NSET=Nfix 
56, 
57, 
60, 
61, 
64, 
68, 
69, 
72, 
448, 
449, 
452, 
453, 
456, 
677, 
678, 
681, 
682, 
685, 
906, 
907, 
** ... 205 like lines cut
*BOUNDARY
Nfix,1,3
*MATERIAL,NAME=CT3D_BENCHMARK
*ELASTIC,TYPE=ISO
210899,0.3142,293.15
210507,0.3142,300.15
209607,0.3152,350.15
207407,0.3162,400.15
205807,0.3172,450.15
*DENSITY
7.91e-09
*EXPANSION,ZERO=293.15
8.9e-06,223.15
9.9e-06,300.15
1.7e-05,1373.15
*MATERIAL,NAME=CRACK
*USER MATERIAL,CONSTANTS=8
1.E-4,772.86,3.1,10.,177.09,10.,3162.,.5
0.
*SOLID SECTION,ELSET=Evol,MATERIAL= CT3D_BENCHMARK
*SHELL SECTION,ELSET=Eshell,MATERIAL= CT3D_BENCHMARK
.01
*STEP,INC=10
*CRACK PROPAGATION,INPUT=masterII.frd,MATERIAL=CRACK,LENGTH=CUMULATIVE
0.05,10.
*NODE FILE
KEQ
*END STEP
