**
**   Structure: channel connecting two reservoirs.
**   Test objective: mild slope, backwater curve,sinusoidal channel floor
**                   (analytical) example S6 from
**                   Amanda Jane Crossley, "Accurate and efficient
**                   numerical solutions for the Saint Venant
**                   equations of open channel flow", Ph.D. Thesis
**                   University of Nottingham (1999)
**                   Notice that "h**3" lacks in the formula for S0
**                   for example S6 in that reference
**
*NODE,NSET=NALL
1,-0.15,0.
2,-0.1,0.
3,-0.05,0.
           4 ,   0.0000000000000000      ,  -0.0000000000000000     
           5 ,   5.0000000000000000      ,  -1.65011790396E-002
           6 ,   10.000000000000000      ,  -3.27836900486E-002
           7 ,   15.000000000000000      ,  -4.88480930790E-002
           8 ,   20.000000000000000      ,  -6.46947831387E-002
           9 ,   25.000000000000000      ,  -8.03239927322E-002
          10 ,   30.000000000000000      ,  -9.57357958193E-002
          11 ,   35.000000000000000      , -0.11093011305410203     
          12 ,   40.000000000000000      , -0.12590671817050783     
          13 ,   45.000000000000000      , -0.14066524538878344     
          14 ,   50.000000000000000      , -0.15520519772160196     
          15 ,   55.000000000000000      , -0.16952595606872173     
          16 ,   60.000000000000000      , -0.18362678899254656     
          17 ,   65.000000000000000      , -0.19750686307792892     
          18 ,   70.000000000000000      , -0.21116525378248807     
          19 ,   75.000000000000000      , -0.22460095669372496     
          20 ,   80.000000000000000      , -0.23781289911398704     
** ... 987 like lines cut
*ELEMENT,TYPE=D,ELSET=EALL
           1,0,1,2
	   2,2,3,4
           3 ,           4 ,           5 ,           6
           4 ,           6 ,           7 ,           8
           5 ,           8 ,           9 ,          10
           6 ,          10 ,          11 ,          12
           7 ,          12 ,          13 ,          14
           8 ,          14 ,          15 ,          16
           9 ,          16 ,          17 ,          18
          10 ,          18 ,          19 ,          20
          11 ,          20 ,          21 ,          22
          12 ,          22 ,          23 ,          24
          13 ,          24 ,          25 ,          26
          14 ,          26 ,          27 ,          28
          15 ,          28 ,          29 ,          30
          16 ,          30 ,          31 ,          32
          17 ,          32 ,          33 ,          34
          18 ,          34 ,          35 ,          36
          19 ,          36 ,          37 ,          38
          20 ,          38 ,          39 ,          40
** ... 484 like lines cut
*MATERIAL,NAME=WATER
*DENSITY
1000.
*FLUID CONSTANTS
4217.,1750.E-6,273.
*ELSET,ELSET=E1
1,504
*ELSET,ELSET=E2
2
*ELSET,ELSET=E4,GENERATE
3,502
*ELSET,ELSET=E5
503
*FLUID SECTION,ELSET=E1,TYPE=CHANNEL INOUT,MATERIAL=WATER
*FLUID SECTION,ELSET=E2,TYPE=CHANNEL SLUICE GATE,MANNING,MATERIAL=WATER
10.,1.107149,0.1,0.0031177,0.03,10.
*FLUID SECTION,ELSET=E4,TYPE=CHANNEL STRAIGHT,MANNING,MATERIAL=WATER
10.,1.107149,-1.,-2.,0.03
*FLUID SECTION,ELSET=E5,TYPE=CHANNEL RESERVOIR,MANNING,MATERIAL=WATER
10.,1.107149,0.1,0.0032194,0.03
*BOUNDARY
1006,2,2,1.125
*BOUNDARY,MASS FLOW
1,1,1,20000.
*STEP
*HEAT TRANSFER,STEADY STATE
*DLOAD
EALL,GRAV,9.81,0.,-1.,0.
*NODE PRINT,NSET=NALL
PN
*END STEP

