**
** freq analysis results ccx vs. abq
**
** ccx 
**
** No.    f
** 1 0.3971608E+00 
** 2 0.1575568E+01
** 3 0.2516759E+01 
** 4 0.5304120E+01 
** 5 0.7309380E+01
** 6 0.8332415E+01
** 7 0.9185346E+01
** 8 0.1082032E+02
** 9 0.1333986E+02
** 10 0.1564534E+02
**
** abq
**
** No.    f
** 1  0.39720
** 2  1.5722
** 3  2.5122
** 4  5.2910
** 5  7.2713
** 6  8.4178
** 7  9.0121
** 8  10.782
** 9  13.211
** 10 15.493



*NODE, NSET=Nall
      1,           0.,           0.,           0.
      2,          4.5,           0.,           0.
      3,           9.,           0.,           0.
      4,         13.5,           0.,           0.
      5,          18.,           0.,           0.
      6,         22.5,           0.,           0.
      7,          27.,           0.,           0.
      8,         31.5,           0.,           0.
      9,          36.,           0.,           0.
     10,         40.5,           0.,           0.
     11,          45.,           0.,           0.
     12,           0.,   4.16666651,           0.
     13,          4.5,   4.16666651,           0.
     14,           9.,   4.16666651,           0.
     15,         13.5,   4.16666651,           0.
     16,          18.,   4.16666651,           0.
     17,         22.5,   4.16666651,           0.
     18,          27.,   4.16666651,           0.
     19,         31.5,   4.16666651,           0.
     20,          36.,   4.16666651,           0.
** ... 57 like lines cut
*Element, type=us3, ELSET=Eall
  1,  1,  2, 13
  2, 13, 12,  1
  3,  2,  3, 14
  4, 14, 13,  2
  5,  3,  4, 15
  6, 15, 14,  3
  7,  4,  5, 16
  8, 16, 15,  4
  9,  5,  6, 17
 10, 17, 16,  5
 11,  6,  7, 18
 12, 18, 17,  6
 13,  7,  8, 19
 14, 19, 18,  7
 15,  8,  9, 20
 16, 20, 19,  8
 17,  9, 10, 21
 18, 21, 20,  9
 19, 10, 11, 22
 20, 22, 21, 10
** ... 100 like lines cut
*USER ELEMENT,TYPE=us3,NODES=3,INTEGRATION POINTS=3,MAXDOF=6


*USER SECTION,ELSET=Eall,MATERIAL=Material-1,CONSTANTS=6
1.0

*Nset, nset=Set-1, generate
  1,  67,  11

*Material, name=Material-1
*Density
9000.,
*Elastic
 2.1e+11, 0.3

*Step, 
*Frequency, 
10, 


*Boundary
Set-1, 1, 1
Set-1, 2, 2
Set-1, 3, 3
Set-1, 4, 4
Set-1, 5, 5
Set-1, 6, 6

*NODE FILE
U
*END STEP
