*HEADING
2D axisymmetric heat transfer assessment of 2D axisymmetric rotor
*NODE, NSET=NALL
         1,  136.37976197212,  44.490301734952
         2,  136.3797608893 ,  41.990301835798
         3,  136.37975980649,  39.490301815629
         4,  136.37975872367,  36.99030179546 
         5,  136.37975764086,  34.490301775291
         6,  136.37975655804,  31.990301755122
         7,  136.37975547523,  29.490301734953
         8,  126.37976197212,  44.490306066209
         9,  126.3797608893 ,  41.99030606621 
        10,  126.37975980649,  39.49030606621 
        11,  126.37975872367,  36.99030606621 
        12,  126.37975764086,  34.49030606621 
        13,  126.37975655804,  31.990306066211
        14,  126.37975547523,  29.490306066211
        15,  128.87975547523,  29.490304983396
        16,  131.37975547523,  29.490303900582
        17,  133.87975547523,  29.490302817768
        18,  133.87976197212,  44.490302817766
        19,  131.37976197212,  44.490303900581
        20,  128.87976197212,  44.490304983395
** ... 101 like lines cut
*ELEMENT,TYPE=CAX8, ELSET=EALL
         1,         7,         5,        22,        16,         6,        21,        24,        17
         2,        16,        22,        12,        14,        24,        23,        13,        15
         3,        19,        26,         3,         1,        25,        28,         2,        18
         4,        26,        22,         5,         3,        27,        21,         4,        28
         5,         8,        10,        26,        19,         9,        29,        25,        20
         6,        10,        12,        22,        26,        11,        23,        27,        29
         7,        36,        74,        32,        34,        73,        76,        33,        35
         8,        74,        65,        30,        32,        75,        66,        31,        76
         9,         1,        71,        74,        36,        70,        77,        73,        37
        10,        71,        63,        65,        74,        72,        64,        75,        77
        11,         3,        79,        71,         1,        78,        81,        70,         2
        12,        79,        61,        63,        71,        80,        62,        72,        81
        13,         5,        68,        79,         3,        67,        82,        78,         4
        14,        68,        59,        61,        79,        69,        60,        80,        82
        15,         7,        87,        68,         5,        86,        89,        67,         6
        16,        87,        57,        59,        68,        88,        58,        69,        89
        17,        39,        84,        87,         7,        83,        90,        86,        38
        18,        84,        55,        57,        87,        85,        56,        88,        90
        19,        41,        92,        84,        39,        91,        94,        83,        40
        20,        92,        53,        55,        84,        93,        54,        85,        94
** ... 10 like lines cut
*NSET, NSET=fwd
 45, 46, 47, 48, 49
*NSET, NSET=aft
 30, 31, 32, 33, 34
*NSET, NSET=od
100,101,102,103,104,105,106
*NSET, NSET=id
  8,  9,  10, 11, 12, 13, 14
*MATERIAL,NAME=EL
*CONDUCTIVITY
50.,0.
*ELASTIC
210000.,.3
*EXPANSION
25.E-6
*DENSITY
7.8E-9
*SPECIFIC HEAT
446.E6
*SOLID SECTION, ELSET=EALL, MATERIAL=EL
*STEP, NLGEOM=YES
*HEAT TRANSFER, STEADY STATE
1.0, 1.0, 1e-6, 1.0
*BOUNDARY, OP=NEW
fwd, 11,, 500 
aft, 11,, 450
od, 11,,  520
id, 11,, 470
*NODE FILE, OUTPUT=3D
NT
*END STEP
