**
**   Structure: one cube.
**   Test objective: interface loading.
**
*NODE, NSET=Nall
       1,1.000000000000e+00,1.000000000000e+00,0.000000000000e+00
       2,1.000000000000e+00,0.000000000000e+00,0.000000000000e+00
       3,1.000000000000e+00,0.000000000000e+00,1.000000000000e+00
       4,1.000000000000e+00,1.000000000000e+00,1.000000000000e+00
       5,0.000000000000e+00,1.000000000000e+00,0.000000000000e+00
       6,0.000000000000e+00,0.000000000000e+00,0.000000000000e+00
       7,0.000000000000e+00,0.000000000000e+00,1.000000000000e+00
       8,0.000000000000e+00,1.000000000000e+00,1.000000000000e+00
       9,1.000000000000e+00,5.000000000000e-01,0.000000000000e+00
      10,1.000000000000e+00,0.000000000000e+00,5.000000000000e-01
      11,1.000000000000e+00,5.000000000000e-01,1.000000000000e+00
      12,1.000000000000e+00,1.000000000000e+00,5.000000000000e-01
      13,5.000000000000e-01,1.000000000000e+00,0.000000000000e+00
      14,5.000000000000e-01,0.000000000000e+00,0.000000000000e+00
      15,5.000000000000e-01,0.000000000000e+00,1.000000000000e+00
      16,5.000000000000e-01,1.000000000000e+00,1.000000000000e+00
      17,0.000000000000e+00,5.000000000000e-01,0.000000000000e+00
      18,0.000000000000e+00,0.000000000000e+00,5.000000000000e-01
      19,0.000000000000e+00,5.000000000000e-01,1.000000000000e+00
      20,0.000000000000e+00,1.000000000000e+00,5.000000000000e-01
** ... 20 like lines cut
*ELEMENT, TYPE=C3D20R, ELSET=Eall
     1,     1,     2,     3,     4,     5,     6,     7,     8,     9,    10,
          11,    12,    17,    18,    19,    20,    13,    14,    15,    16
*ELEMENT, TYPE=S8R, ELSET=Eshell,DLOAD
     2,21,22,26,25,29,34,37,33
*NSET,NSET=Nfix 
1, 
2, 
5, 
6, 
9, 
13, 
14, 
17, 
*BOUNDARY
Nfix,1,3
*MATERIAL,NAME=EL
*ELASTIC
210000.,.0
*SOLID SECTION,ELSET=Eall,MATERIAL=EL
*STEP
*STATIC
*DLOAD
2, I, 100.000000 
*NODE PRINT,NSET=Nall
U
*EL PRINT,ELSET=Eall
S
*END STEP
*STEP
*STATIC
*DLOAD
2, I, 200.000000 
*END STEP
