**
**   plate with pressure loads
**
**   ccx wmax = -2.082235E-01 | S11max 2.83e7
**   abq wmax = -2.06E-01     | S11max 2.80e7	
** 
**Abaqus				
** 				
** elements	nodes	DOFS	|wmax|	         S11max
** 50            36	216	4.44E-02	1.05E+07
** 98            64	384	7.43E-02	1.33E+07
** 128           81	486	9.94E-02	1.48E+07
** 200          121	726	1.45E-01	1.95E+07
** 392          225	1350	1.91E-01	2.59E+07
** 800          441	2646	2.06E-01	2.80E+07
** 1458         784	4704	2.09E-01	2.84E+07
** 				
** ccx				
** 				
** elements	nodes	DOFS		
** 50	         36	216	4.60E-02	1.07E+07
** 98	         64	384	8.76E-02	1.51E+07
** 128	         81	486	1.20E-01	1.78E+07
** 200	        121	726	1.66E-01	2.27E+07
** 392	        225	1350	1.99E-01	2.70E+07
** 800	        441	2646	2.08E-01	2.83E+07
** 1458	        784	4704	2.09E-01	2.85E+07
**

*Node,Nset=Nall
      1,           5.,           5.,           0.
      2,          4.5,           5.,           0.
      3,           4.,           5.,           0.
      4,          3.5,           5.,           0.
      5,           3.,           5.,           0.
      6,          2.5,           5.,           0.
      7,           2.,           5.,           0.
      8,          1.5,           5.,           0.
      9,           1.,           5.,           0.
     10,          0.5,           5.,           0.
     11,           0.,           5.,           0.
     12,         -0.5,           5.,           0.
     13,          -1.,           5.,           0.
     14,         -1.5,           5.,           0.
     15,          -2.,           5.,           0.
     16,         -2.5,           5.,           0.
     17,          -3.,           5.,           0.
     18,         -3.5,           5.,           0.
     19,          -4.,           5.,           0.
     20,         -4.5,           5.,           0.
** ... 421 like lines cut
*Element, type=us3, ELSET=Eall
  1,   1,   2,  23
  2,  23,  22,   1
  3,   2,   3,  24
  4,  24,  23,   2
  5,   3,   4,  25
  6,  25,  24,   3
  7,   4,   5,  26
  8,  26,  25,   4
  9,   5,   6,  27
 10,  27,  26,   5
 11,   6,   7,  28
 12,  28,  27,   6
 13,   7,   8,  29
 14,  29,  28,   7
 15,   8,   9,  30
 16,  30,  29,   8
 17,   9,  10,  31
 18,  31,  30,   9
 19,  10,  11,  32
 20,  32,  31,  10
** ... 780 like lines cut
*USER ELEMENT,TYPE=us3,NODES=3,INTEGRATION POINTS=3,MAXDOF=6


*Elset, elset=Set-1, generate
   1,  800,    1

** Section: Section-1
*USER SECTION,ELSET=Set-1,MATERIAL=Material-1,CONSTANTS=1
0.01     
   
*Nset, nset=Set-1, 
   1,   2,   3,   4,   5,   6,   7,   8,   9,  10,  11,  12,  13,  14,  15,  16
  17,  18,  19,  20,  21,  22,  42,  43,  63,  64,  84,  85, 105, 106, 126, 127
 147, 148, 168, 169, 189, 190, 210, 211, 231, 232, 252, 253, 273, 274, 294, 295
 315, 316, 336, 337, 357, 358, 378, 379, 399, 400, 420, 421, 422, 423, 424, 425
 426, 427, 428, 429, 430, 431, 432, 433, 434, 435, 436, 437, 438, 439, 440, 441
*Elset, elset=Set-1, 
   1,   2,   3,   5,   7,   9,  11,  13,  15,  17,  19,  21,  23,  25,  27,  29
  31,  33,  35,  37,  39,  42,  79,  82, 119, 122, 159, 162, 199, 202, 239, 242
 279, 282, 319, 322, 359, 362, 399, 402, 439, 442, 479, 482, 519, 522, 559, 562
 599, 602, 639, 642, 679, 682, 719, 722, 759, 762, 764, 766, 768, 770, 772, 774
 776, 778, 780, 782, 784, 786, 788, 790, 792, 794, 796, 798, 799, 800
*Elset, elset=_Surf-1_SPOS, generate
   1,  800,    1
*Surface, type=ELEMENT, name=Surf-1
_Surf-1_SPOS, SPOS

** 
** MATERIALS
** 
*Material, name=Material-1
*Density
9000.,
*Elastic
 2.1e+11, 0.3
** ----------------------------------------------------------------
** 
** STEP: Step-1
** 
*Step, name=Step-1, nlgeom=NO
*Static
1., 1., 1e-05, 1.
** 
** BOUNDARY CONDITIONS
** 
** Name: BC-1 Type: Displacement/Rotation
*Boundary
Set-1, 1, 1
Set-1, 2, 2
Set-1, 3, 3
** 
** LOADS
** 
** Name: Load-1   Type: Pressure
*Dsload
Surf-1, P, 100.
** 
** OUTPUT REQUESTS
**
*NODE PRINT,NSET=Nall
U
*EL PRINT,ELSET=Eall
S
*EL FILE
SNEG,SMID,SPOS
*NODE FILE
U,RF

*End Step
