
** v @ node 1 = 22.3


*Node,Nset=Nall
      1,          48.,          52.,           0.
      2,          24.,          37.,           0.
      3,          24.,          22.,           0.
      4,          48.,          50.,           0.
      5,          48.,          48.,           0.
      6,          48.,          46.,           0.
      7,          48.,          44.,           0.
      8,           0.,          22.,           0.
      9,          24.,          52.,           0.
     10,           0.,          44.,           0.
     11,           0.,           0.,           0.
     12,          48.,          54.,           0.
     13,          48.,          56.,           0.
     14,          48.,          58.,           0.
     15,          48.,          60.,           0.
     16,          42.,        48.25,           0.
     17,          36.,         44.5,           0.
     18,          30.,        40.75,           0.
     19,          24.,        33.25,           0.
     20,          24.,         29.5,           0.
** ... 61 like lines cut
*Element, type=us3, ELSET=Eall
 1,  1, 16,  4
 2, 16, 46,  4
 3, 16, 17, 46
 4, 17, 47, 46
 5, 17, 18, 47
 6, 18, 48, 47
 7, 18,  2, 48
 8,  2, 19, 48
 9,  4, 46,  5
10, 46, 49,  5
11, 46, 47, 49
12, 47, 50, 49
13, 47, 48, 50
14, 48, 51, 50
15, 48, 19, 51
16, 19, 20, 51
17,  5, 49,  6
18, 49, 52,  6
19, 49, 50, 52
20, 50, 53, 52
** ... 108 like lines cut
*USER ELEMENT,TYPE=us3,NODES=3,INTEGRATION POINTS=3,MAXDOF=6


*USER SECTION,ELSET=Eall,MATERIAL=Material-1,CONSTANTS=6
1.0

*Nset, nset=Set-1, 
  8, 10, 11
*Nset, nset=Set-2, 
 7,
*Nset, nset=Set-3, 
 7,
*Nset, nset=Set-4, 
  8, 10, 11, 34, 35, 36, 37, 38, 39
*Nset, nset=Set-5, 
 7,
*Nset, nset=Set-6, instance=Part-1-1
  1,  4,  5,  6,  7, 12, 13, 14, 15

  
**
** MATERIALS
**
*Material, name=Material-1
*Density
1.,
*Elastic
1., 0.333333
** ----------------------------------------------------------------
**
** STEP: Step-1
**
*Step, name=Step-1, nlgeom=NO
*Static
1., 1., 1e-05, 1.
**
** BOUNDARY CONDITIONS
**
** Name: BC-2 Type: Displacement/Rotation
*Boundary
Set-4, 1, 1
Set-4, 2, 2
Set-4, 3, 3
Set-4, 4, 4
Set-4, 5, 5
Set-4, 6, 6
**
** LOADS
**
** Name: Load-4   Type: Concentrated force
*Cload
Set-6, 2, 0.111111

**
** OUTPUT REQUESTS
**
*NODE PRINT,NSET=Nall
U
*EL PRINT,ELSET=Eall
S
*EL FILE
SNEG,SMID,SPOS
*NODE FILE
U,RF

*End Step

