**
**  ccx umax = 1.385755E+00 -> umax/uref = 0.997
**  abq umax =     xxx      -> umax/uref = 0.996
**
** Refeference is presented in following paper:
** Technical Paper
** Published: 29 June 2018
** A three-node shell element based on the discrete shear gap and 
** assumed natural deviatoric strain approaches
** Gil Rama, Dragan Marinkovic & Manfred Zehn 
** Journal of the Brazilian Society of Mechanical Sciences and Engineering
** volume 40, Article number: 356 (2018)

**  t = 0,05 uref = 1,390
** Elemente   ccx abq S3 
**      24  0.903 0.768
**      32  0.964 0.914
**      48  0.986 0.967
**      64  0.991 0.986
**      96  0.994 0.992
**     384  0.997 0.996  <- current .inp
**    1536  0.999 0.998

*
*Part, name=Part-1
*Node,Nset=Nall
      1,           0., -0.550000012,          12.
      2,           0.,           0.,          12.
      3,           0.,           0.,           0.
      4, -0.550000012,           0.,           0.
      5,           0.,  0.550000012,          12.
      6,  0.550000012,           0.,           0.
      7,           0., -0.275000006,          12.
      8,           0.,           0.,        11.75
      9,           0.,           0.,         11.5
     10,           0.,           0.,        11.25
     11,           0.,           0.,          11.
     12,           0.,           0.,        10.75
     13,           0.,           0.,         10.5
     14,           0.,           0.,        10.25
     15,           0.,           0.,          10.
     16,           0.,           0.,         9.75
     17,           0.,           0.,          9.5
     18,           0.,           0.,         9.25
     19,           0.,           0.,           9.
     20,           0.,           0.,         8.75
** ... 225 like lines cut
*Element, type=us3, ELSET=Eall
  1,   1,   7, 102
  2,   7, 152, 102
  3,   7,   2, 152
  4,   2,   8, 152
  5, 102, 152, 101
  6, 152, 153, 101
  7, 152,   8, 153
  8,   8,   9, 153
  9, 101, 153, 100
 10, 153, 154, 100
 11, 153,   9, 154
 12,   9,  10, 154
 13, 100, 154,  99
 14, 154, 155,  99
 15, 154,  10, 155
 16,  10,  11, 155
 17,  99, 155,  98
 18, 155, 156,  98
 19, 155,  11, 156
 20,  11,  12, 156
** ... 364 like lines cut
*USER ELEMENT,TYPE=us3,NODES=3,INTEGRATION POINTS=3,MAXDOF=6


*USER SECTION,ELSET=Eall,MATERIAL=Material-1,CONSTANTS=1
0.05

*Nset, nset=Set-2, 
   1,   2,   5,   7, 103

** MATERIALS
**
*Material, name=Material-1
*Density
7800.,
*Elastic
 2.9e+07, 0.22

*Step, 
*Static
1., 1., 1e-05, 1.

*Boundary
Set-2, 1, 1
Set-2, 2, 2
Set-2, 3, 3
Set-2, 4, 4
Set-2, 5, 5
Set-2, 6, 6
**
** LOADS
**
** Name: Load-1   Type: Concentrated force
*Cload
3, 1, 1.

** ccx output
*NODE PRINT,NSET=Nall
U
*EL FILE
SNEG,SMID,SPOS
*EL PRINT,ELSET=Eall
S
*NODE FILE
U,RF
*end step

**U,RF,SNEG,SMID,SPOS
