**
**   Structure: cube;
**   Test objective: *MOHR COULOMB
**                   displacement driven
**
*NODE, NSET=Nall
       1,  1.00000e+00,  1.00000e+00,  0.00000e+00 
       2,  1.00000e+00,  0.00000e+00,  0.00000e+00 
       3,  1.00000e+00,  0.00000e+00,  1.00000e+00 
       4,  1.00000e+00,  1.00000e+00,  1.00000e+00 
       5,  0.00000e+00,  1.00000e+00,  0.00000e+00 
       6,  0.00000e+00,  0.00000e+00,  0.00000e+00 
       7,  0.00000e+00,  0.00000e+00,  1.00000e+00 
       8,  0.00000e+00,  1.00000e+00,  1.00000e+00 
       9,  1.00000e+00,  5.00000e-01,  0.00000e+00 
      10,  1.00000e+00,  0.00000e+00,  5.00000e-01 
      11,  1.00000e+00,  5.00000e-01,  1.00000e+00 
      12,  1.00000e+00,  1.00000e+00,  5.00000e-01 
      13,  5.00000e-01,  1.00000e+00,  0.00000e+00 
      14,  5.00000e-01,  0.00000e+00,  0.00000e+00 
      15,  5.00000e-01,  0.00000e+00,  1.00000e+00 
      16,  5.00000e-01,  1.00000e+00,  1.00000e+00 
      17,  0.00000e+00,  5.00000e-01,  0.00000e+00 
      18,  0.00000e+00,  0.00000e+00,  5.00000e-01 
      19,  0.00000e+00,  5.00000e-01,  1.00000e+00 
      20,  0.00000e+00,  1.00000e+00,  5.00000e-01 
*ELEMENT, TYPE=C3D8, ELSET=Eall
     1,     1,     2,     3,     4,     5,     6,     7,     8
*NSET,NSET=FIX
5,6,7,8,17,18,19,20
*MATERIAL,NAME=MC
*ELASTIC
210000.,.0
*MOHR COULOMB
20.,0.
*MOHR COULOMB HARDENING
0.,0.
0.,1.
*SOLID SECTION,ELSET=Eall,MATERIAL=MC
*NSET,NSET=DOWN
1,2,5,6,9,13,14,17
*NSET,NSET=UP
3,4,7,8,11,15,16,19
**
*STEP,INC=100
*STATIC
1.,1.
*BOUNDARY
DOWN,1,3,0.
UP,2,3,0.
UP,1,1,.01
*NODE FILE
U
*EL FILE
S,PEEQ,NOE
*END STEP

