**
**   Structure: cylinder.
**   Test objective: multistage MPC's, radial connection
**
*NODE, NSET=Nall
1,1.000000000000e+02,0.000000000000e+00,1.000000000000e+02
2,9.000000000000e+01,0.000000000000e+00,1.000000000000e+02
3,9.000000000000e+01,-2.617694830787e+00,9.996573249756e+01
4,1.000000000000e+02,-2.617694830787e+00,9.996573249756e+01
5,1.000000000000e+02,0.000000000000e+00,1.025000000000e+02
6,9.000000000000e+01,0.000000000000e+00,1.025000000000e+02
7,9.000000000000e+01,-2.683137201557e+00,1.024648758100e+02
8,1.000000000000e+02,-2.683137201557e+00,1.024648758100e+02
9,9.500000000000e+01,0.000000000000e+00,1.000000000000e+02
10,9.000000000000e+01,-1.308959557134e+00,9.999143275740e+01
11,9.500000000000e+01,-2.617694830787e+00,9.996573249756e+01
12,1.000000000000e+02,-1.308959557134e+00,9.999143275740e+01
13,1.000000000000e+02,0.000000000000e+00,1.012500000000e+02
14,9.000000000000e+01,0.000000000000e+00,1.012500000000e+02
15,9.000000000000e+01,-2.650416016172e+00,1.012153041538e+02
16,1.000000000000e+02,-2.650416016172e+00,1.012153041538e+02
17,9.500000000000e+01,0.000000000000e+00,1.025000000000e+02
18,9.000000000000e+01,-1.341683546063e+00,1.024912185763e+02
19,9.500000000000e+01,-2.683137201557e+00,1.024648758100e+02
20,1.000000000000e+02,-1.341683546063e+00,1.024912185763e+02
** ... 2038 like lines cut
*ELEMENT, TYPE=C3D20R, ELSET=Eall
1,     1,     2,     3,     4,     5,     6,     7,     8,     9,    10,
11,    12,    17,    18,    19,    20,    13,    14,    15,    16
2,     4,     3,    21,    22,     8,     7,    23,    24,    11,    25,
26,    27,    19,    30,    31,    32,    16,    15,    28,    29
3,    22,    21,    33,    34,    24,    23,    35,    36,    26,    37,
38,    39,    31,    42,    43,    44,    29,    28,    40,    41
4,    34,    33,    45,    46,    36,    35,    47,    48,    38,    49,
50,    51,    43,    54,    55,    56,    41,    40,    52,    53
5,     5,     6,     7,     8,    57,    58,    59,    60,    17,    18,
19,    20,    65,    66,    67,    68,    61,    62,    63,    64
6,     8,     7,    23,    24,    60,    59,    69,    70,    19,    30,
31,    32,    67,    73,    74,    75,    64,    63,    71,    72
7,    24,    23,    35,    36,    70,    69,    76,    77,    31,    42,
43,    44,    74,    80,    81,    82,    72,    71,    78,    79
8,    36,    35,    47,    48,    77,    76,    83,    84,    43,    54,
55,    56,    81,    87,    88,    89,    79,    78,    85,    86
9,     2,    90,    91,     3,     6,    92,    93,     7,    94,    95,
96,    10,    99,   100,   101,    18,    14,    97,    98,    15
10,     3,    91,   102,    21,     7,    93,   103,    23,    96,   104,
105,    25,   101,   107,   108,    30,    15,    98,   106,    28
** ... 620 like lines cut
** Names based on SPC
*NSET,NSET=NSPC
1920,
1922,
1924,
1927,
1929,
1931,
1932,
1933,
1935,
1936,
1938,
1939,
1940,
1942,
1943,
1945,
1946,
1947,
1949,
1950,
** ... 76 like lines cut
** Names based on SPC2
*NSET,NSET=NSPC2
507,
509,
511,
514,
516,
518,
519,
520,
522,
523,
525,
526,
527,
529,
530,
532,
533,
534,
536,
537,
** ... 12 like lines cut
** Names based on TRT2
*NSET,NSET=NTRT2
710,
711,
712,
713,
718,
719,
720,
721,
722,
723,
726,
727,
728,
729,
730,
733,
734,
735,
736,
737,
** ... 195 like lines cut
** Names based on TRT3
*NSET,NSET=NTRT3
57,
58,
59,
60,
65,
66,
67,
68,
69,
70,
73,
74,
75,
76,
77,
80,
81,
82,
83,
84,
** ... 59 like lines cut
** Names based on block1b
*NSET,NSET=Nblock1b
1,
2,
3,
4,
5,
6,
7,
8,
9,
10,
11,
12,
13,
14,
15,
16,
17,
18,
19,
20,
** ... 537 like lines cut
*ELSET,ELSET=Eblock1b
1,
2,
3,
4,
5,
6,
7,
8,
9,
10,
11,
12,
13,
14,
15,
16,
17,
18,
19,
20,
** ... 60 like lines cut
** Names based on block2b
*NSET,NSET=Nblock2b
558,
559,
560,
561,
562,
563,
564,
565,
566,
567,
568,
569,
570,
571,
572,
573,
574,
575,
576,
577,
** ... 1481 like lines cut
*ELSET,ELSET=Eblock2b
81,
82,
83,
84,
85,
86,
87,
88,
89,
90,
91,
92,
93,
94,
95,
96,
97,
98,
99,
100,
** ... 220 like lines cut
** Names based on cycl1
*NSET,NSET=Ncycl1
1,
2,
5,
6,
9,
13,
14,
17,
57,
58,
61,
62,
65,
90,
92,
94,
97,
99,
123,
125,
** ... 65 like lines cut
** Names based on cycl2
*NSET,NSET=Ncycl2
558,
559,
562,
563,
566,
570,
571,
574,
710,
711,
714,
715,
718,
799,
801,
803,
806,
808,
888,
890,
** ... 65 like lines cut
** Names based on cycr1
*NSET,NSET=Ncycr1
45,
46,
47,
48,
50,
52,
53,
55,
83,
84,
85,
86,
88,
116,
117,
119,
120,
122,
138,
139,
** ... 65 like lines cut
** Names based on cycr2
*NSET,NSET=Ncycr2
698,
699,
700,
701,
703,
705,
706,
708,
792,
793,
794,
795,
797,
881,
882,
884,
885,
887,
935,
936,
** ... 65 like lines cut
*NSET,NSET=WarnNodeMultiStage
1713
1714
1715
1716
1721
1722
1723
1724
1725
1726
1729
1730
1731
1732
1733
1736
1737
1738
1739
1740
** ... 322 like lines cut
*TRANSFORM, NSET=NSPC, TYPE=C
0.,0.,0., 1.,0.,0.
*BOUNDARY
NSPC,1,3
*SURFACE,NAME=SURF1,TYPE=NODE
Ncycl1
*SURFACE,NAME=SURF2,TYPE=NODE
Ncycr1
*TIE, NAME=TIE1, CYCLIC SYMMETRY,POSITION TOLERANCE=1.E-4
SURF1,SURF2
*CYCLIC SYMMETRY MODEL,N=60, TIE=TIE1, ELSET=Eblock1b, NGRAPH=60
0.,0.,0., 1.,0.,0.
**
*SURFACE,NAME=SURF3,TYPE=NODE
Ncycl2
*SURFACE,NAME=SURF4,TYPE=NODE
Ncycr2
*TIE, NAME=TIE2, CYCLIC SYMMETRY,POSITION TOLERANCE=1.E-1
SURF3,SURF4
*CYCLIC SYMMETRY MODEL, N=20, TIE=TIE2, ELSET=Eblock2b, NGRAPH=20
0.,0.,0., 1.,0.,0.
**
*SURFACE,NAME=SURF5,TYPE=NODE
NTRT3
*SURFACE,NAME=SURF6,TYPE=NODE
NTRT2
*TIE, NAME=TIE3, MULTISTAGE,POSITION TOLERANCE=1.E-1
SURF5,SURF6
**
*MATERIAL,NAME=EL
*ELASTIC,TYPE=ISO
90000,0.343,293.15
113085,0.343,300.15
107845,0.343,400.15
102605,0.343,500.15
97365.2,0.343,600.15
93540,0.343,673.15
*DENSITY
4.43e-09
*SOLID SECTION, ELSET=Eall, MATERIAL=EL
*INITIAL CONDITIONS, TYPE=TEMPERATURE
Nall, 293.
**
*STEP
*FREQUENCY
10
*SELECT CYCLIC SYMMETRY MODES,NMIN=1,NMAX=1
**
***NODE FILE, NSET=Nall, FREQUENCY=1
**PU
***EL FILE, NSET=Nall, POSITION=AVERAGED AT NODES, FREQUENCY=1
**PHS
**
*END STEP
