**
**   Structure: cube with convection boundary condition;
**   Test objective: AMPLITUDE=RAMP with film conditions
**
*NODE, NSET=Nall
       1,  1.00000e+00,  1.00000e+00,  0.00000e+00 
       2,  1.00000e+00,  0.00000e+00,  0.00000e+00 
       3,  1.00000e+00,  0.00000e+00,  1.00000e+00 
       4,  1.00000e+00,  1.00000e+00,  1.00000e+00 
       5,  0.00000e+00,  1.00000e+00,  0.00000e+00 
       6,  0.00000e+00,  0.00000e+00,  0.00000e+00 
       7,  0.00000e+00,  0.00000e+00,  1.00000e+00 
       8,  0.00000e+00,  1.00000e+00,  1.00000e+00 
       9,  1.00000e+00,  5.00000e-01,  0.00000e+00 
      10,  1.00000e+00,  0.00000e+00,  5.00000e-01 
      11,  1.00000e+00,  5.00000e-01,  1.00000e+00 
      12,  1.00000e+00,  1.00000e+00,  5.00000e-01 
      13,  5.00000e-01,  1.00000e+00,  0.00000e+00 
      14,  5.00000e-01,  0.00000e+00,  0.00000e+00 
      15,  5.00000e-01,  0.00000e+00,  1.00000e+00 
      16,  5.00000e-01,  1.00000e+00,  1.00000e+00 
      17,  0.00000e+00,  5.00000e-01,  0.00000e+00 
      18,  0.00000e+00,  0.00000e+00,  5.00000e-01 
      19,  0.00000e+00,  5.00000e-01,  1.00000e+00 
      20,  0.00000e+00,  1.00000e+00,  5.00000e-01 
*ELEMENT, TYPE=C3D20R, ELSET=Eall
     1,     1,     2,     3,     4,     5,     6,     7,     8,     9,    10,
          11,    12,    17,    18,    19,    20,    13,    14,    15,    16
*NSET,NSET=FIX
5,6,7,8,17,18,19,20
*INITIAL CONDITIONS,TYPE=TEMPERATURE
Nall,5.
*MATERIAL,NAME=EL
*CONDUCTIVITY
50.,0.
*DENSITY
7.8E-9
*SPECIFIC HEAT
446.E6
*
*PHYSICAL CONSTANTS,ABSOLUTE ZERO=-273.15,STEFAN BOLTZMANN=5.669E-8
*SOLID SECTION,ELSET=Eall,MATERIAL=EL
**
*STEP,INC=100,AMPLITUDE=RAMP
*HEAT TRANSFER
.01,1000.
*BOUNDARY
FIX,11,11,5.
*FILM
1,F1,-12.,10.e10
*NODE PRINT,NSET=Nall
NT
*END STEP

