*NODE,NSET=Nall
         1, 0.00000000E+00, 0.00000000E+00, 0.00000000E+00
         2, 0.10000000E+01, 0.00000000E+00, 0.00000000E+00
         3, 0.10000000E+01, 0.10000000E+01, 0.00000000E+00
         4, 0.00000000E+00, 0.10000000E+01, 0.00000000E+00
         5, 0.00000000E+00, 0.00000000E+00, 0.80000000E+01
         6, 0.10000000E+01, 0.00000000E+00, 0.80000000E+01
         7, 0.10000000E+01, 0.10000000E+01, 0.80000000E+01
         8, 0.00000000E+00, 0.10000000E+01, 0.80000000E+01
         9, 0.25000000E+00, 0.00000000E+00, 0.00000000E+00
        10, 0.50000000E+00, 0.00000000E+00, 0.00000000E+00
        11, 0.75000000E+00, 0.00000000E+00, 0.00000000E+00
        12, 0.10000000E+01, 0.25000000E+00, 0.00000000E+00
        13, 0.10000000E+01, 0.50000000E+00, 0.00000000E+00
        14, 0.10000000E+01, 0.75000000E+00, 0.00000000E+00
        15, 0.75000000E+00, 0.10000000E+01, 0.00000000E+00
        16, 0.50000000E+00, 0.10000000E+01, 0.00000000E+00
        17, 0.25000000E+00, 0.10000000E+01, 0.00000000E+00
        18, 0.00000000E+00, 0.75000000E+00, 0.00000000E+00
        19, 0.00000000E+00, 0.50000000E+00, 0.00000000E+00
        20, 0.00000000E+00, 0.25000000E+00, 0.00000000E+00
** ... 241 like lines cut
*ELEMENT,TYPE=C3D20   ,ELSET=         1E
         1,         1,        10,        95,        19,        61,       105,       222,       192,         9,        93,        94,        20,       104,       220,       221,
       193,        62,       103,       219,       190,
*ELEMENT,TYPE=C3D20   ,ELSET=         2E
         2,        10,         2,        13,        95,       105,        34,       134,       222,        11,        12,        96,        93,       106,       133,       223,
       220,       103,        33,       132,       219,
*ELEMENT,TYPE=C3D20   ,ELSET=         3E
         3,        19,        95,        16,         4,       192,       222,       163,        79,        94,        97,        17,        18,       221,       224,       164,
       191,       190,       219,       161,        78,
*ELEMENT,TYPE=C3D20   ,ELSET=         4E
         4,        95,        13,         3,        16,       222,       134,        64,       163,        96,        14,        15,        97,       223,       135,       162,
       224,       219,       132,        63,       161,
*ELEMENT,TYPE=C3D20   ,ELSET=         5E
         5,        61,       105,       222,       192,        59,       109,       228,       196,       104,       220,       221,       193,       108,       226,       227,
       197,        60,       107,       225,       194,
*ELEMENT,TYPE=C3D20   ,ELSET=         6E
         6,       105,        34,       134,       222,       109,        36,       138,       228,       106,       133,       223,       220,       110,       137,       229,
       226,       107,        35,       136,       225,
*ELEMENT,TYPE=C3D20   ,ELSET=         7E
         7,       192,       222,       163,        79,       196,       228,       167,        81,       221,       224,       164,       191,       227,       230,       168,
       195,       194,       225,       165,        80,
*ELEMENT,TYPE=C3D20   ,ELSET=         8E
         8,       222,       134,        64,       163,       228,       138,        66,       167,       223,       135,       162,       224,       229,       139,       166,
       230,       225,       136,        65,       165,
*ELEMENT,TYPE=C3D20   ,ELSET=         9E
         9,        59,       109,       228,       196,        57,       113,       234,       200,       108,       226,       227,       197,       112,       232,       233,
       201,        58,       111,       231,       198,
*ELEMENT,TYPE=C3D20   ,ELSET=        10E
        10,       109,        36,       138,       228,       113,        38,       142,       234,       110,       137,       229,       226,       114,       141,       235,
       232,       111,        37,       140,       231,
*ELEMENT,TYPE=C3D20   ,ELSET=        11E
        11,       196,       228,       167,        81,       200,       234,       171,        83,       227,       230,       168,       195,       233,       236,       172,
       199,       198,       231,       169,        82,
*ELEMENT,TYPE=C3D20   ,ELSET=        12E
        12,       228,       138,        66,       167,       234,       142,        68,       171,       229,       139,       166,       230,       235,       143,       170,
       236,       231,       140,        67,       169,
*ELEMENT,TYPE=C3D20   ,ELSET=        13E
        13,        57,       113,       234,       200,        55,       117,       240,       204,       112,       232,       233,       201,       116,       238,       239,
       205,        56,       115,       237,       202,
*ELEMENT,TYPE=C3D20   ,ELSET=        14E
        14,       113,        38,       142,       234,       117,        40,       146,       240,       114,       141,       235,       232,       118,       145,       241,
       238,       115,        39,       144,       237,
*ELEMENT,TYPE=C3D20   ,ELSET=        15E
        15,       200,       234,       171,        83,       204,       240,       175,        85,       233,       236,       172,       199,       239,       242,       176,
       203,       202,       237,       173,        84,
*ELEMENT,TYPE=C3D20   ,ELSET=        16E
        16,       234,       142,        68,       171,       240,       146,        70,       175,       235,       143,       170,       236,       241,       147,       174,
       242,       237,       144,        69,       173,
*ELEMENT,TYPE=C3D20   ,ELSET=        17E
        17,        55,       117,       240,       204,        53,       121,       246,       208,       116,       238,       239,       205,       120,       244,       245,
       209,        54,       119,       243,       206,
*ELEMENT,TYPE=C3D20   ,ELSET=        18E
        18,       117,        40,       146,       240,       121,        42,       150,       246,       118,       145,       241,       238,       122,       149,       247,
       244,       119,        41,       148,       243,
*ELEMENT,TYPE=C3D20   ,ELSET=        19E
        19,       204,       240,       175,        85,       208,       246,       179,        87,       239,       242,       176,       203,       245,       248,       180,
       207,       206,       243,       177,        86,
*ELEMENT,TYPE=C3D20   ,ELSET=        20E
        20,       240,       146,        70,       175,       246,       150,        72,       179,       241,       147,       174,       242,       247,       151,       178,
       248,       243,       148,        71,       177,
** ... 36 like lines cut
*MATERIAL,NAME=         1M
*ELASTIC
 0.50000000E+00,0.3
*SOLID SECTION,ELSET=         1E,MATERIAL=         1M
*MATERIAL,NAME=         2M
*ELASTIC
 0.50000000E+00,0.3
*SOLID SECTION,ELSET=         2E,MATERIAL=         2M
*MATERIAL,NAME=         3M
*ELASTIC
 0.50000000E+00,0.3
*SOLID SECTION,ELSET=         3E,MATERIAL=         3M
*MATERIAL,NAME=         4M
*ELASTIC
 0.50000000E+00,0.3
*SOLID SECTION,ELSET=         4E,MATERIAL=         4M
*MATERIAL,NAME=         5M
*ELASTIC
 0.50000000E+00,0.3
*SOLID SECTION,ELSET=         5E,MATERIAL=         5M
*MATERIAL,NAME=         6M
*ELASTIC
 0.50000000E+00,0.3
*SOLID SECTION,ELSET=         6E,MATERIAL=         6M
*MATERIAL,NAME=         7M
*ELASTIC
 0.50000000E+00,0.3
*SOLID SECTION,ELSET=         7E,MATERIAL=         7M
*MATERIAL,NAME=         8M
*ELASTIC
 0.50000000E+00,0.3
*SOLID SECTION,ELSET=         8E,MATERIAL=         8M
*MATERIAL,NAME=         9M
*ELASTIC
 0.50000000E+00,0.3
*SOLID SECTION,ELSET=         9E,MATERIAL=         9M
*MATERIAL,NAME=        10M
*ELASTIC
 0.50000000E+00,0.3
*SOLID SECTION,ELSET=        10E,MATERIAL=        10M
*MATERIAL,NAME=        11M
*ELASTIC
 0.50000000E+00,0.3
*SOLID SECTION,ELSET=        11E,MATERIAL=        11M
*MATERIAL,NAME=        12M
*ELASTIC
 0.50000000E+00,0.3
*SOLID SECTION,ELSET=        12E,MATERIAL=        12M
*MATERIAL,NAME=        13M
*ELASTIC
 0.50000000E+00,0.3
*SOLID SECTION,ELSET=        13E,MATERIAL=        13M
*MATERIAL,NAME=        14M
*ELASTIC
 0.50000000E+00,0.3
*SOLID SECTION,ELSET=        14E,MATERIAL=        14M
*MATERIAL,NAME=        15M
*ELASTIC
 0.50000000E+00,0.3
*SOLID SECTION,ELSET=        15E,MATERIAL=        15M
*MATERIAL,NAME=        16M
*ELASTIC
 0.50000000E+00,0.3
*SOLID SECTION,ELSET=        16E,MATERIAL=        16M
*MATERIAL,NAME=        17M
*ELASTIC
 0.50000000E+00,0.3
*SOLID SECTION,ELSET=        17E,MATERIAL=        17M
*MATERIAL,NAME=        18M
*ELASTIC
 0.50000000E+00,0.3
*SOLID SECTION,ELSET=        18E,MATERIAL=        18M
*MATERIAL,NAME=        19M
*ELASTIC
 0.50000000E+00,0.3
*SOLID SECTION,ELSET=        19E,MATERIAL=        19M
*MATERIAL,NAME=        20M
*ELASTIC
 0.50000000E+00,0.3
*SOLID SECTION,ELSET=        20E,MATERIAL=        20M
*MATERIAL,NAME=        21M
*ELASTIC
 0.50000000E+00,0.3
*SOLID SECTION,ELSET=        21E,MATERIAL=        21M
*MATERIAL,NAME=        22M
*ELASTIC
 0.50000000E+00,0.3
*SOLID SECTION,ELSET=        22E,MATERIAL=        22M
*MATERIAL,NAME=        23M
*ELASTIC
 0.50000000E+00,0.3
*SOLID SECTION,ELSET=        23E,MATERIAL=        23M
*MATERIAL,NAME=        24M
*ELASTIC
 0.50000000E+00,0.3
*SOLID SECTION,ELSET=        24E,MATERIAL=        24M
*MATERIAL,NAME=        25M
*ELASTIC
 0.50000000E+00,0.3
*SOLID SECTION,ELSET=        25E,MATERIAL=        25M
*MATERIAL,NAME=        26M
*ELASTIC
 0.50000000E+00,0.3
*SOLID SECTION,ELSET=        26E,MATERIAL=        26M
*MATERIAL,NAME=        27M
*ELASTIC
 0.50000000E+00,0.3
*SOLID SECTION,ELSET=        27E,MATERIAL=        27M
*MATERIAL,NAME=        28M
*ELASTIC
 0.50000000E+00,0.3
*SOLID SECTION,ELSET=        28E,MATERIAL=        28M
*MATERIAL,NAME=        29M
*ELASTIC
 0.50000000E+00,0.3
*SOLID SECTION,ELSET=        29E,MATERIAL=        29M
*MATERIAL,NAME=        30M
*ELASTIC
 0.50000000E+00,0.3
*SOLID SECTION,ELSET=        30E,MATERIAL=        30M
*MATERIAL,NAME=        31M
*ELASTIC
 0.50000000E+00,0.3
*SOLID SECTION,ELSET=        31E,MATERIAL=        31M
*MATERIAL,NAME=        32M
*ELASTIC
 0.50000000E+00,0.3
*SOLID SECTION,ELSET=        32E,MATERIAL=        32M
*EQUATION
1
         3,1,1,
1
         3,2,1,
1
         3,3,1,
1
         4,1,1,
1
         4,2,1,
1
         4,3,1,
1
         7,1,1,
1
         7,2,1,
1
         7,3,1,
1
         8,1,1,
** ... 216 like lines cut
*NODE
       262,0.,0.,0.
       263,0.,0.,0.
       264,0.,0.,0.
       265,0.,0.,0.
       266,0.,0.,0.
       267,0.,0.,0.
       268,0.,0.,0.
       269,0.,0.,0.
       270,0.,0.,0.
       271,0.,0.,0.
       272,0.,0.,0.
       273,0.,0.,0.
       274,0.,0.,0.
       275,0.,0.,0.
       276,0.,0.,0.
       277,0.,0.,0.
       278,0.,0.,0.
       279,0.,0.,0.
       280,0.,0.,0.
       281,0.,0.,0.
** ... 172 like lines cut
*EQUATION
4
         1,2,-0.5773502691896E+00,         1,3,-0.5773502691896E+00,         1,1,-0.5773502691896E+00,       262,1,-1.
*BOUNDARY
       262,1,1,-0.8845224650822E-01
*EQUATION
4
         2,2,-0.5773502691896E+00,         2,3,-0.5773502691896E+00,         2,1, 0.5773502691896E+00,       263,1,-1.
*BOUNDARY
       263,1,1,-0.8844565304697E-01
*EQUATION
4
         5,2,-0.5773502691896E+00,         5,3, 0.5773502691896E+00,         5,1,-0.5773502691896E+00,       264,1,-1.
*BOUNDARY
       264,1,1,-0.8844347871325E-01
*EQUATION
4
         6,2,-0.5773502691896E+00,         6,3, 0.5773502691896E+00,         6,1, 0.5773502691896E+00,       265,1,-1.
*BOUNDARY
       265,1,1,-0.8856555881940E-01
*EQUATION
4
         9,2,-0.7071067811865E+00,         9,3,-0.7071067811865E+00,         9,1, 0.0000000000000E+00,       266,1,-1.
*BOUNDARY
       266,1,1,-0.8087031229729E-01
*EQUATION
4
        10,2,-0.7071067811865E+00,        10,3,-0.7071067811865E+00,        10,1, 0.0000000000000E+00,       267,1,-1.
*BOUNDARY
       267,1,1,-0.8102209022671E-01
*EQUATION
4
        11,2,-0.7071067811865E+00,        11,3,-0.7071067811865E+00,        11,1, 0.0000000000000E+00,       268,1,-1.
*BOUNDARY
       268,1,1,-0.8087407554398E-01
*EQUATION
4
        12,1, 0.7071067811865E+00,        12,3,-0.7071067811865E+00,        12,2, 0.0000000000000E+00,       269,1,-1.
*BOUNDARY
       269,1,1,-0.6817507645549E-01
*EQUATION
4
        20,1,-0.7071067811865E+00,        20,3,-0.7071067811865E+00,        20,2, 0.0000000000000E+00,       270,1,-1.
*BOUNDARY
       270,1,1,-0.6829897566446E-01
*EQUATION
4
        21,2,-0.7071067811865E+00,        21,3, 0.7071067811865E+00,        21,1, 0.0000000000000E+00,       271,1,-1.
*BOUNDARY
       271,1,1,-0.8089184878531E-01
*EQUATION
4
        22,2,-0.7071067811865E+00,        22,3, 0.7071067811865E+00,        22,1, 0.0000000000000E+00,       272,1,-1.
*BOUNDARY
       272,1,1,-0.8104918417633E-01
*EQUATION
4
        23,2,-0.7071067811865E+00,        23,3, 0.7071067811865E+00,        23,1, 0.0000000000000E+00,       273,1,-1.
*BOUNDARY
       273,1,1,-0.8090655346148E-01
*EQUATION
4
        24,1, 0.7071067811865E+00,        24,3, 0.7071067811865E+00,        24,2, 0.0000000000000E+00,       274,1,-1.
*BOUNDARY
       274,1,1,-0.6830610467585E-01
*EQUATION
4
        32,1,-0.7071067811865E+00,        32,3, 0.7071067811865E+00,        32,2, 0.0000000000000E+00,       275,1,-1.
*BOUNDARY
       275,1,1,-0.6838907550071E-01
*EQUATION
4
        33,1, 0.7071067811865E+00,        33,2,-0.7071067811865E+00,        33,3, 0.0000000000000E+00,       276,1,-1.
*BOUNDARY
       276,1,1,-0.6953798490498E-01
*EQUATION
4
        34,1, 0.7071067811865E+00,        34,2,-0.7071067811865E+00,        34,3, 0.0000000000000E+00,       277,1,-1.
*BOUNDARY
       277,1,1,-0.5290466112298E-01
*EQUATION
4
        35,1, 0.7071067811865E+00,        35,2,-0.7071067811865E+00,        35,3, 0.0000000000000E+00,       278,1,-1.
*BOUNDARY
       278,1,1,-0.2919623294120E-01
*EQUATION
4
        36,1, 0.7071067811865E+00,        36,2,-0.7071067811865E+00,        36,3, 0.0000000000000E+00,       279,1,-1.
*BOUNDARY
       279,1,1,-0.4252323695555E-02
*EQUATION
4
        37,1, 0.7071067811865E+00,        37,2,-0.7071067811865E+00,        37,3, 0.0000000000000E+00,       280,1,-1.
*BOUNDARY
       280,1,1, 0.2233597979921E-01
*EQUATION
4
        38,1, 0.7071067811865E+00,        38,2,-0.7071067811865E+00,        38,3, 0.0000000000000E+00,       281,1,-1.
*BOUNDARY
       281,1,1, 0.4755139968566E-01
*EQUATION
4
        39,1, 0.7071067811865E+00,        39,2,-0.7071067811865E+00,        39,3, 0.0000000000000E+00,       282,1,-1.
*BOUNDARY
       282,1,1, 0.6494725150466E-01
*EQUATION
4
        40,1, 0.7071067811865E+00,        40,2,-0.7071067811865E+00,        40,3, 0.0000000000000E+00,       283,1,-1.
*BOUNDARY
       283,1,1, 0.7318997035817E-01
*EQUATION
4
        41,1, 0.7071067811865E+00,        41,2,-0.7071067811865E+00,        41,3, 0.0000000000000E+00,       284,1,-1.
*BOUNDARY
       284,1,1, 0.6491913625718E-01
*EQUATION
4
        42,1, 0.7071067811865E+00,        42,2,-0.7071067811865E+00,        42,3, 0.0000000000000E+00,       285,1,-1.
*BOUNDARY
       285,1,1, 0.4749636443828E-01
*EQUATION
4
        43,1, 0.7071067811865E+00,        43,2,-0.7071067811865E+00,        43,3, 0.0000000000000E+00,       286,1,-1.
*BOUNDARY
       286,1,1, 0.2225878759255E-01
*EQUATION
4
        44,1, 0.7071067811865E+00,        44,2,-0.7071067811865E+00,        44,3, 0.0000000000000E+00,       287,1,-1.
*BOUNDARY
       287,1,1,-0.4348193996657E-02
*EQUATION
4
        45,1, 0.7071067811865E+00,        45,2,-0.7071067811865E+00,        45,3, 0.0000000000000E+00,       288,1,-1.
*BOUNDARY
       288,1,1,-0.2930619939183E-01
*EQUATION
4
        46,1, 0.7071067811865E+00,        46,2,-0.7071067811865E+00,        46,3, 0.0000000000000E+00,       289,1,-1.
*BOUNDARY
       289,1,1,-0.5302620652300E-01
*EQUATION
4
        47,1, 0.7071067811865E+00,        47,2,-0.7071067811865E+00,        47,3, 0.0000000000000E+00,       290,1,-1.
*BOUNDARY
       290,1,1,-0.6966611085522E-01
*EQUATION
4
        48,1,-0.7071067811865E+00,        48,2,-0.7071067811865E+00,        48,3, 0.0000000000000E+00,       291,1,-1.
*BOUNDARY
       291,1,1,-0.6946677583803E-01
*EQUATION
4
        49,1,-0.7071067811865E+00,        49,2,-0.7071067811865E+00,        49,3, 0.0000000000000E+00,       292,1,-1.
*BOUNDARY
       292,1,1,-0.5276992350261E-01
*EQUATION
4
        50,1,-0.7071067811865E+00,        50,2,-0.7071067811865E+00,        50,3, 0.0000000000000E+00,       293,1,-1.
*BOUNDARY
       293,1,1,-0.2898611958859E-01
*EQUATION
4
        51,1,-0.7071067811865E+00,        51,2,-0.7071067811865E+00,        51,3, 0.0000000000000E+00,       294,1,-1.
*BOUNDARY
       294,1,1,-0.3959980701206E-02
*EQUATION
4
        52,1,-0.7071067811865E+00,        52,2,-0.7071067811865E+00,        52,3, 0.0000000000000E+00,       295,1,-1.
*BOUNDARY
       295,1,1, 0.2271164439077E-01
*EQUATION
4
        53,1,-0.7071067811865E+00,        53,2,-0.7071067811865E+00,        53,3, 0.0000000000000E+00,       296,1,-1.
*BOUNDARY
       296,1,1, 0.4800839687959E-01
*EQUATION
4
        54,1,-0.7071067811865E+00,        54,2,-0.7071067811865E+00,        54,3, 0.0000000000000E+00,       297,1,-1.
*BOUNDARY
       297,1,1, 0.6546166908130E-01
*EQUATION
4
        55,1,-0.7071067811865E+00,        55,2,-0.7071067811865E+00,        55,3, 0.0000000000000E+00,       298,1,-1.
*BOUNDARY
       298,1,1, 0.7373407274257E-01
*EQUATION
4
        56,1,-0.7071067811865E+00,        56,2,-0.7071067811865E+00,        56,3, 0.0000000000000E+00,       299,1,-1.
*BOUNDARY
       299,1,1, 0.6544800550779E-01
*EQUATION
4
        57,1,-0.7071067811865E+00,        57,2,-0.7071067811865E+00,        57,3, 0.0000000000000E+00,       300,1,-1.
*BOUNDARY
       300,1,1, 0.4798358367717E-01
*EQUATION
4
        58,1,-0.7071067811865E+00,        58,2,-0.7071067811865E+00,        58,3, 0.0000000000000E+00,       301,1,-1.
*BOUNDARY
       301,1,1, 0.2267985359137E-01
*EQUATION
4
        59,1,-0.7071067811865E+00,        59,2,-0.7071067811865E+00,        59,3, 0.0000000000000E+00,       302,1,-1.
*BOUNDARY
       302,1,1,-0.3994800155751E-02
*EQUATION
4
        60,1,-0.7071067811865E+00,        60,2,-0.7071067811865E+00,        60,3, 0.0000000000000E+00,       303,1,-1.
*BOUNDARY
       303,1,1,-0.2902032925257E-01
*EQUATION
4
        61,1,-0.7071067811865E+00,        61,2,-0.7071067811865E+00,        61,3, 0.0000000000000E+00,       304,1,-1.
*BOUNDARY
       304,1,1,-0.5280086216982E-01
*EQUATION
4
        62,1,-0.7071067811865E+00,        62,2,-0.7071067811865E+00,        62,3, 0.0000000000000E+00,       305,1,-1.
*BOUNDARY
       305,1,1,-0.6949302010970E-01
*EQUATION
4
        63,1, 0.7071067811865E+00,        63,2, 0.7071067811865E+00,        63,3, 0.0000000000000E+00,       306,1,-1.
*BOUNDARY
       306,1,1,-0.5055831434783E-01
*EQUATION
4
        64,1, 0.7071067811865E+00,        64,2, 0.7071067811865E+00,        64,3, 0.0000000000000E+00,       307,1,-1.
*BOUNDARY
       307,1,1,-0.3885497215270E-01
*EQUATION
4
        65,1, 0.7071067811865E+00,        65,2, 0.7071067811865E+00,        65,3, 0.0000000000000E+00,       308,1,-1.
*BOUNDARY
       308,1,1,-0.1989904370201E-01
*EQUATION
4
        66,1, 0.7071067811865E+00,        66,2, 0.7071067811865E+00,        66,3, 0.0000000000000E+00,       309,1,-1.
*BOUNDARY
       309,1,1, 0.6965528073746E-03
*EQUATION
4
        67,1, 0.7071067811865E+00,        67,2, 0.7071067811865E+00,        67,3, 0.0000000000000E+00,       310,1,-1.
*BOUNDARY
       310,1,1, 0.2306150814336E-01
*EQUATION
4
        68,1, 0.7071067811865E+00,        68,2, 0.7071067811865E+00,        68,3, 0.0000000000000E+00,       311,1,-1.
*BOUNDARY
       311,1,1, 0.4407497872339E-01
*EQUATION
4
        69,1, 0.7071067811865E+00,        69,2, 0.7071067811865E+00,        69,3, 0.0000000000000E+00,       312,1,-1.
*BOUNDARY
       312,1,1, 0.5973087918352E-01
*EQUATION
4
        70,1, 0.7071067811865E+00,        70,2, 0.7071067811865E+00,        70,3, 0.0000000000000E+00,       313,1,-1.
*BOUNDARY
       313,1,1, 0.6714476072599E-01
*EQUATION
4
        71,1, 0.7071067811865E+00,        71,2, 0.7071067811865E+00,        71,3, 0.0000000000000E+00,       314,1,-1.
*BOUNDARY
       314,1,1, 0.5961754547800E-01
*EQUATION
4
        72,1, 0.7071067811865E+00,        72,2, 0.7071067811865E+00,        72,3, 0.0000000000000E+00,       315,1,-1.
*BOUNDARY
       315,1,1, 0.4385777833810E-01
*EQUATION
4
        73,1, 0.7071067811865E+00,        73,2, 0.7071067811865E+00,        73,3, 0.0000000000000E+00,       316,1,-1.
*BOUNDARY
       316,1,1, 0.2277247841153E-01
*EQUATION
4
        74,1, 0.7071067811865E+00,        74,2, 0.7071067811865E+00,        74,3, 0.0000000000000E+00,       317,1,-1.
*BOUNDARY
       317,1,1, 0.3539653304211E-03
*EQUATION
4
        75,1, 0.7071067811865E+00,        75,2, 0.7071067811865E+00,        75,3, 0.0000000000000E+00,       318,1,-1.
*BOUNDARY
       318,1,1,-0.2026781376130E-01
*EQUATION
4
        76,1, 0.7071067811865E+00,        76,2, 0.7071067811865E+00,        76,3, 0.0000000000000E+00,       319,1,-1.
*BOUNDARY
       319,1,1,-0.3923660801647E-01
*EQUATION
4
        77,1, 0.7071067811865E+00,        77,2, 0.7071067811865E+00,        77,3, 0.0000000000000E+00,       320,1,-1.
*BOUNDARY
       320,1,1,-0.5093200701659E-01
*EQUATION
4
        78,1,-0.7071067811865E+00,        78,2, 0.7071067811865E+00,        78,3, 0.0000000000000E+00,       321,1,-1.
*BOUNDARY
       321,1,1,-0.5087141352529E-01
*EQUATION
4
        79,1,-0.7071067811865E+00,        79,2, 0.7071067811865E+00,        79,3, 0.0000000000000E+00,       322,1,-1.
*BOUNDARY
       322,1,1,-0.3922912990357E-01
*EQUATION
4
        80,1,-0.7071067811865E+00,        80,2, 0.7071067811865E+00,        80,3, 0.0000000000000E+00,       323,1,-1.
*BOUNDARY
       323,1,1,-0.2034167381407E-01
*EQUATION
4
        81,1,-0.7071067811865E+00,        81,2, 0.7071067811865E+00,        81,3, 0.0000000000000E+00,       324,1,-1.
*BOUNDARY
       324,1,1, 0.1787055662977E-03
*EQUATION
4
        82,1,-0.7071067811865E+00,        82,2, 0.7071067811865E+00,        82,3, 0.0000000000000E+00,       325,1,-1.
*BOUNDARY
       325,1,1, 0.2246556438149E-01
*EQUATION
4
        83,1,-0.7071067811865E+00,        83,2, 0.7071067811865E+00,        83,3, 0.0000000000000E+00,       326,1,-1.
*BOUNDARY
       326,1,1, 0.4340396610544E-01
*EQUATION
4
        84,1,-0.7071067811865E+00,        84,2, 0.7071067811865E+00,        84,3, 0.0000000000000E+00,       327,1,-1.
*BOUNDARY
       327,1,1, 0.5900268680216E-01
*EQUATION
4
        85,1,-0.7071067811865E+00,        85,2, 0.7071067811865E+00,        85,3, 0.0000000000000E+00,       328,1,-1.
*BOUNDARY
       328,1,1, 0.6638237192159E-01
*EQUATION
4
        86,1,-0.7071067811865E+00,        86,2, 0.7071067811865E+00,        86,3, 0.0000000000000E+00,       329,1,-1.
*BOUNDARY
       329,1,1, 0.5885735670788E-01
*EQUATION
4
        87,1,-0.7071067811865E+00,        87,2, 0.7071067811865E+00,        87,3, 0.0000000000000E+00,       330,1,-1.
*BOUNDARY
       330,1,1, 0.4312519900511E-01
*EQUATION
4
        88,1,-0.7071067811865E+00,        88,2, 0.7071067811865E+00,        88,3, 0.0000000000000E+00,       331,1,-1.
*BOUNDARY
       331,1,1, 0.2209255780653E-01
*EQUATION
4
        89,1,-0.7071067811865E+00,        89,2, 0.7071067811865E+00,        89,3, 0.0000000000000E+00,       332,1,-1.
*BOUNDARY
       332,1,1,-0.2643651985437E-03
*EQUATION
4
        90,1,-0.7071067811865E+00,        90,2, 0.7071067811865E+00,        90,3, 0.0000000000000E+00,       333,1,-1.
*BOUNDARY
       333,1,1,-0.2082197376046E-01
*EQUATION
4
        91,1,-0.7071067811865E+00,        91,2, 0.7071067811865E+00,        91,3, 0.0000000000000E+00,       334,1,-1.
*BOUNDARY
       334,1,1,-0.3972921297831E-01
*EQUATION
4
        92,1,-0.7071067811865E+00,        92,2, 0.7071067811865E+00,        92,3, 0.0000000000000E+00,       335,1,-1.
*BOUNDARY
       335,1,1,-0.5136427941093E-01
*EQUATION
4
        93,3,-0.1000000000000E+01,        93,2, 0.0000000000000E+00,        93,1, 0.0000000000000E+00,       336,1,-1.
*BOUNDARY
       336,1,1,-0.3691535690513E-01
*EQUATION
4
        98,3, 0.1000000000000E+01,        98,2, 0.0000000000000E+00,        98,1, 0.0000000000000E+00,       337,1,-1.
*BOUNDARY
       337,1,1,-0.3693539726094E-01
*EQUATION
4
       103,2,-0.1000000000000E+01,       103,3, 0.0000000000000E+00,       103,1, 0.0000000000000E+00,       338,1,-1.
*BOUNDARY
       338,1,1,-0.5829871998761E-01
*EQUATION
4
       104,2,-0.1000000000000E+01,       104,3, 0.0000000000000E+00,       104,1, 0.0000000000000E+00,       339,1,-1.
*BOUNDARY
       339,1,1,-0.3893984520181E-01
*EQUATION
4
       105,2,-0.1000000000000E+01,       105,3, 0.0000000000000E+00,       105,1, 0.0000000000000E+00,       340,1,-1.
*BOUNDARY
       340,1,1,-0.3905842651446E-01
*EQUATION
4
       106,2,-0.1000000000000E+01,       106,3, 0.0000000000000E+00,       106,1, 0.0000000000000E+00,       341,1,-1.
*BOUNDARY
       341,1,1,-0.3895765502147E-01
*EQUATION
4
       107,2,-0.1000000000000E+01,       107,3, 0.0000000000000E+00,       107,1, 0.0000000000000E+00,       342,1,-1.
*BOUNDARY
       342,1,1,-0.1216282571003E-01
*EQUATION
4
       108,2,-0.1000000000000E+01,       108,3, 0.0000000000000E+00,       108,1, 0.0000000000000E+00,       343,1,-1.
*BOUNDARY
       343,1,1, 0.1530615931675E-01
*EQUATION
4
       109,2,-0.1000000000000E+01,       109,3, 0.0000000000000E+00,       109,1, 0.0000000000000E+00,       344,1,-1.
*BOUNDARY
       344,1,1, 0.1539925363826E-01
*EQUATION
4
       110,2,-0.1000000000000E+01,       110,3, 0.0000000000000E+00,       110,1, 0.0000000000000E+00,       345,1,-1.
*BOUNDARY
       345,1,1, 0.1527384370187E-01
*EQUATION
4
       111,2,-0.1000000000000E+01,       111,3, 0.0000000000000E+00,       111,1, 0.0000000000000E+00,       346,1,-1.
*BOUNDARY
       346,1,1, 0.4470599460528E-01
*EQUATION
4
       112,2,-0.1000000000000E+01,       112,3, 0.0000000000000E+00,       112,1, 0.0000000000000E+00,       347,1,-1.
*BOUNDARY
       347,1,1, 0.7224444400323E-01
*EQUATION
4
       113,2,-0.1000000000000E+01,       113,3, 0.0000000000000E+00,       113,1, 0.0000000000000E+00,       348,1,-1.
*BOUNDARY
       348,1,1, 0.7249674244013E-01
*EQUATION
4
       114,2,-0.1000000000000E+01,       114,3, 0.0000000000000E+00,       114,1, 0.0000000000000E+00,       349,1,-1.
*BOUNDARY
       349,1,1, 0.7219596905727E-01
*EQUATION
4
       115,2,-0.1000000000000E+01,       115,3, 0.0000000000000E+00,       115,1, 0.0000000000000E+00,       350,1,-1.
*BOUNDARY
       350,1,1, 0.9094373312842E-01
*EQUATION
4
       116,2,-0.1000000000000E+01,       116,3, 0.0000000000000E+00,       116,1, 0.0000000000000E+00,       351,1,-1.
*BOUNDARY
       351,1,1, 0.9963617542254E-01
*EQUATION
4
       117,2,-0.1000000000000E+01,       117,3, 0.0000000000000E+00,       117,1, 0.0000000000000E+00,       352,1,-1.
*BOUNDARY
       352,1,1, 0.1000000000000E+00
*EQUATION
4
       118,2,-0.1000000000000E+01,       118,3, 0.0000000000000E+00,       118,1, 0.0000000000000E+00,       353,1,-1.
*BOUNDARY
       353,1,1, 0.9957758766483E-01
*EQUATION
4
       119,2,-0.1000000000000E+01,       119,3, 0.0000000000000E+00,       119,1, 0.0000000000000E+00,       354,1,-1.
*BOUNDARY
       354,1,1, 0.9095192600012E-01
*EQUATION
4
       120,2,-0.1000000000000E+01,       120,3, 0.0000000000000E+00,       120,1, 0.0000000000000E+00,       355,1,-1.
*BOUNDARY
       355,1,1, 0.7226202105896E-01
*EQUATION
4
       121,2,-0.1000000000000E+01,       121,3, 0.0000000000000E+00,       121,1, 0.0000000000000E+00,       356,1,-1.
*BOUNDARY
       356,1,1, 0.7251105187936E-01
*EQUATION
4
       122,2,-0.1000000000000E+01,       122,3, 0.0000000000000E+00,       122,1, 0.0000000000000E+00,       357,1,-1.
*BOUNDARY
       357,1,1, 0.7220678442846E-01
*EQUATION
4
       123,2,-0.1000000000000E+01,       123,3, 0.0000000000000E+00,       123,1, 0.0000000000000E+00,       358,1,-1.
*BOUNDARY
       358,1,1, 0.4472126762141E-01
*EQUATION
4
       124,2,-0.1000000000000E+01,       124,3, 0.0000000000000E+00,       124,1, 0.0000000000000E+00,       359,1,-1.
*BOUNDARY
       359,1,1, 0.1532529926011E-01
*EQUATION
4
       125,2,-0.1000000000000E+01,       125,3, 0.0000000000000E+00,       125,1, 0.0000000000000E+00,       360,1,-1.
*BOUNDARY
       360,1,1, 0.1541299144222E-01
*EQUATION
4
       126,2,-0.1000000000000E+01,       126,3, 0.0000000000000E+00,       126,1, 0.0000000000000E+00,       361,1,-1.
*BOUNDARY
       361,1,1, 0.1528197389005E-01
*EQUATION
4
       127,2,-0.1000000000000E+01,       127,3, 0.0000000000000E+00,       127,1, 0.0000000000000E+00,       362,1,-1.
*BOUNDARY
       362,1,1,-0.1215471662494E-01
*EQUATION
4
       128,2,-0.1000000000000E+01,       128,3, 0.0000000000000E+00,       128,1, 0.0000000000000E+00,       363,1,-1.
*BOUNDARY
       363,1,1,-0.3893283391367E-01
*EQUATION
4
       129,2,-0.1000000000000E+01,       129,3, 0.0000000000000E+00,       129,1, 0.0000000000000E+00,       364,1,-1.
*BOUNDARY
       364,1,1,-0.3905798213344E-01
*EQUATION
4
       130,2,-0.1000000000000E+01,       130,3, 0.0000000000000E+00,       130,1, 0.0000000000000E+00,       365,1,-1.
*BOUNDARY
       365,1,1,-0.3896369733970E-01
*EQUATION
4
       131,2,-0.1000000000000E+01,       131,3, 0.0000000000000E+00,       131,1, 0.0000000000000E+00,       366,1,-1.
*BOUNDARY
       366,1,1,-0.5830684707565E-01
*EQUATION
4
       132,1, 0.1000000000000E+01,       132,2, 0.0000000000000E+00,       132,3, 0.0000000000000E+00,       367,1,-1.
*BOUNDARY
       367,1,1,-0.6049483412875E-01
*EQUATION
4
       133,1, 0.1000000000000E+01,       133,2, 0.0000000000000E+00,       133,3, 0.0000000000000E+00,       368,1,-1.
*BOUNDARY
       368,1,1,-0.5149414917191E-01
*EQUATION
4
       134,1, 0.1000000000000E+01,       134,2, 0.0000000000000E+00,       134,3, 0.0000000000000E+00,       369,1,-1.
*BOUNDARY
       369,1,1,-0.5159319693135E-01
*EQUATION
4
       135,1, 0.1000000000000E+01,       135,2, 0.0000000000000E+00,       135,3, 0.0000000000000E+00,       370,1,-1.
*BOUNDARY
       370,1,1,-0.5133550077365E-01
*EQUATION
4
       136,1, 0.1000000000000E+01,       136,2, 0.0000000000000E+00,       136,3, 0.0000000000000E+00,       371,1,-1.
*BOUNDARY
       371,1,1,-0.3743252413971E-01
*EQUATION
4
       137,1, 0.1000000000000E+01,       137,2, 0.0000000000000E+00,       137,3, 0.0000000000000E+00,       372,1,-1.
*BOUNDARY
       372,1,1,-0.2196030714588E-01
*EQUATION
4
       138,1, 0.1000000000000E+01,       138,2, 0.0000000000000E+00,       138,3, 0.0000000000000E+00,       373,1,-1.
*BOUNDARY
       373,1,1,-0.2200052765555E-01
*EQUATION
4
       139,1, 0.1000000000000E+01,       139,2, 0.0000000000000E+00,       139,3, 0.0000000000000E+00,       374,1,-1.
*BOUNDARY
       374,1,1,-0.2179734128264E-01
*EQUATION
4
       140,1, 0.1000000000000E+01,       140,2, 0.0000000000000E+00,       140,3, 0.0000000000000E+00,       375,1,-1.
*BOUNDARY
       375,1,1,-0.5436805528858E-02
*EQUATION
4
       141,1, 0.1000000000000E+01,       141,2, 0.0000000000000E+00,       141,3, 0.0000000000000E+00,       376,1,-1.
*BOUNDARY
       376,1,1, 0.1041119325436E-01
*EQUATION
4
       142,1, 0.1000000000000E+01,       142,2, 0.0000000000000E+00,       142,3, 0.0000000000000E+00,       377,1,-1.
*BOUNDARY
       377,1,1, 0.1027442504867E-01
*EQUATION
4
       143,1, 0.1000000000000E+01,       143,2, 0.0000000000000E+00,       143,3, 0.0000000000000E+00,       378,1,-1.
*BOUNDARY
       378,1,1, 0.1038256432777E-01
*EQUATION
4
       144,1, 0.1000000000000E+01,       144,2, 0.0000000000000E+00,       144,3, 0.0000000000000E+00,       379,1,-1.
*BOUNDARY
       379,1,1, 0.2171761950866E-01
*EQUATION
4
       145,1, 0.1000000000000E+01,       145,2, 0.0000000000000E+00,       145,3, 0.0000000000000E+00,       380,1,-1.
*BOUNDARY
       380,1,1, 0.2736657112517E-01
*EQUATION
4
       146,1, 0.1000000000000E+01,       146,2, 0.0000000000000E+00,       146,3, 0.0000000000000E+00,       381,1,-1.
*BOUNDARY
       381,1,1, 0.2721124858554E-01
*EQUATION
4
       147,1, 0.1000000000000E+01,       147,2, 0.0000000000000E+00,       147,3, 0.0000000000000E+00,       382,1,-1.
*BOUNDARY
       382,1,1, 0.2725736095238E-01
*EQUATION
4
       148,1, 0.1000000000000E+01,       148,2, 0.0000000000000E+00,       148,3, 0.0000000000000E+00,       383,1,-1.
*BOUNDARY
       383,1,1, 0.2167065164541E-01
*EQUATION
4
       149,1, 0.1000000000000E+01,       149,2, 0.0000000000000E+00,       149,3, 0.0000000000000E+00,       384,1,-1.
*BOUNDARY
       384,1,1, 0.1032144524044E-01
*EQUATION
4
       150,1, 0.1000000000000E+01,       150,2, 0.0000000000000E+00,       150,3, 0.0000000000000E+00,       385,1,-1.
*BOUNDARY
       385,1,1, 0.1018415667966E-01
*EQUATION
4
       151,1, 0.1000000000000E+01,       151,2, 0.0000000000000E+00,       151,3, 0.0000000000000E+00,       386,1,-1.
*BOUNDARY
       386,1,1, 0.1029186780070E-01
*EQUATION
4
       152,1, 0.1000000000000E+01,       152,2, 0.0000000000000E+00,       152,3, 0.0000000000000E+00,       387,1,-1.
*BOUNDARY
       387,1,1,-0.5558479897147E-02
*EQUATION
4
       153,1, 0.1000000000000E+01,       153,2, 0.0000000000000E+00,       153,3, 0.0000000000000E+00,       388,1,-1.
*BOUNDARY
       388,1,1,-0.2210537990432E-01
*EQUATION
4
       154,1, 0.1000000000000E+01,       154,2, 0.0000000000000E+00,       154,3, 0.0000000000000E+00,       389,1,-1.
*BOUNDARY
       389,1,1,-0.2214648394276E-01
*EQUATION
4
       155,1, 0.1000000000000E+01,       155,2, 0.0000000000000E+00,       155,3, 0.0000000000000E+00,       390,1,-1.
*BOUNDARY
       390,1,1,-0.2194397340825E-01
*EQUATION
4
       156,1, 0.1000000000000E+01,       156,2, 0.0000000000000E+00,       156,3, 0.0000000000000E+00,       391,1,-1.
*BOUNDARY
       391,1,1,-0.3759190523696E-01
*EQUATION
4
       157,1, 0.1000000000000E+01,       157,2, 0.0000000000000E+00,       157,3, 0.0000000000000E+00,       392,1,-1.
*BOUNDARY
       392,1,1,-0.5166083846893E-01
*EQUATION
4
       158,1, 0.1000000000000E+01,       158,2, 0.0000000000000E+00,       158,3, 0.0000000000000E+00,       393,1,-1.
*BOUNDARY
       393,1,1,-0.5176090656179E-01
*EQUATION
4
       159,1, 0.1000000000000E+01,       159,2, 0.0000000000000E+00,       159,3, 0.0000000000000E+00,       394,1,-1.
*BOUNDARY
       394,1,1,-0.5150385606366E-01
*EQUATION
4
       160,1, 0.1000000000000E+01,       160,2, 0.0000000000000E+00,       160,3, 0.0000000000000E+00,       395,1,-1.
*BOUNDARY
       395,1,1,-0.6066215739116E-01
*EQUATION
4
       161,2, 0.1000000000000E+01,       161,3, 0.0000000000000E+00,       161,1, 0.0000000000000E+00,       396,1,-1.
*BOUNDARY
       396,1,1,-0.3223383168785E-01
*EQUATION
4
       162,2, 0.1000000000000E+01,       162,3, 0.0000000000000E+00,       162,1, 0.0000000000000E+00,       397,1,-1.
*BOUNDARY
       397,1,1,-0.1984594755733E-01
*EQUATION
4
       163,2, 0.1000000000000E+01,       163,3, 0.0000000000000E+00,       163,1, 0.0000000000000E+00,       398,1,-1.
*BOUNDARY
       398,1,1,-0.1992696263155E-01
*EQUATION
4
       164,2, 0.1000000000000E+01,       164,3, 0.0000000000000E+00,       164,1, 0.0000000000000E+00,       399,1,-1.
*BOUNDARY
       399,1,1,-0.1987161048633E-01
*EQUATION
4
       165,2, 0.1000000000000E+01,       165,3, 0.0000000000000E+00,       165,1, 0.0000000000000E+00,       400,1,-1.
*BOUNDARY
       400,1,1, 0.1702717933671E-03
*EQUATION
4
       166,2, 0.1000000000000E+01,       166,3, 0.0000000000000E+00,       166,1, 0.0000000000000E+00,       401,1,-1.
*BOUNDARY
       401,1,1, 0.2151887182513E-01
*EQUATION
4
       167,2, 0.1000000000000E+01,       167,3, 0.0000000000000E+00,       167,1, 0.0000000000000E+00,       402,1,-1.
*BOUNDARY
       402,1,1, 0.2161552523260E-01
*EQUATION
4
       168,2, 0.1000000000000E+01,       168,3, 0.0000000000000E+00,       168,1, 0.0000000000000E+00,       403,1,-1.
*BOUNDARY
       403,1,1, 0.2147880718360E-01
*EQUATION
4
       169,2, 0.1000000000000E+01,       169,3, 0.0000000000000E+00,       169,1, 0.0000000000000E+00,       404,1,-1.
*BOUNDARY
       404,1,1, 0.4497582138328E-01
*EQUATION
4
       170,2, 0.1000000000000E+01,       170,3, 0.0000000000000E+00,       170,1, 0.0000000000000E+00,       405,1,-1.
*BOUNDARY
       405,1,1, 0.6665422921823E-01
*EQUATION
4
       171,2, 0.1000000000000E+01,       171,3, 0.0000000000000E+00,       171,1, 0.0000000000000E+00,       406,1,-1.
*BOUNDARY
       406,1,1, 0.6687677190136E-01
*EQUATION
4
       172,2, 0.1000000000000E+01,       172,3, 0.0000000000000E+00,       172,1, 0.0000000000000E+00,       407,1,-1.
*BOUNDARY
       407,1,1, 0.6659859093835E-01
*EQUATION
4
       173,2, 0.1000000000000E+01,       173,3, 0.0000000000000E+00,       173,1, 0.0000000000000E+00,       408,1,-1.
*BOUNDARY
       408,1,1, 0.8290406236605E-01
*EQUATION
4
       174,2, 0.1000000000000E+01,       174,3, 0.0000000000000E+00,       174,1, 0.0000000000000E+00,       409,1,-1.
*BOUNDARY
       409,1,1, 0.9040360635854E-01
*EQUATION
4
       175,2, 0.1000000000000E+01,       175,3, 0.0000000000000E+00,       175,1, 0.0000000000000E+00,       410,1,-1.
*BOUNDARY
       410,1,1, 0.9072433932464E-01
*EQUATION
4
       176,2, 0.1000000000000E+01,       176,3, 0.0000000000000E+00,       176,1, 0.0000000000000E+00,       411,1,-1.
*BOUNDARY
       411,1,1, 0.9033811966976E-01
*EQUATION
4
       177,2, 0.1000000000000E+01,       177,3, 0.0000000000000E+00,       177,1, 0.0000000000000E+00,       412,1,-1.
*BOUNDARY
       412,1,1, 0.8274611610115E-01
*EQUATION
4
       178,2, 0.1000000000000E+01,       178,3, 0.0000000000000E+00,       178,1, 0.0000000000000E+00,       413,1,-1.
*BOUNDARY
       413,1,1, 0.6635468214664E-01
*EQUATION
4
       179,2, 0.1000000000000E+01,       179,3, 0.0000000000000E+00,       179,1, 0.0000000000000E+00,       414,1,-1.
*BOUNDARY
       414,1,1, 0.6657288959576E-01
*EQUATION
4
       180,2, 0.1000000000000E+01,       180,3, 0.0000000000000E+00,       180,1, 0.0000000000000E+00,       415,1,-1.
*BOUNDARY
       415,1,1, 0.6629228367467E-01
*EQUATION
4
       181,2, 0.1000000000000E+01,       181,3, 0.0000000000000E+00,       181,1, 0.0000000000000E+00,       416,1,-1.
*BOUNDARY
       416,1,1, 0.4457185179998E-01
*EQUATION
4
       182,2, 0.1000000000000E+01,       182,3, 0.0000000000000E+00,       182,1, 0.0000000000000E+00,       417,1,-1.
*BOUNDARY
       417,1,1, 0.2104468127344E-01
*EQUATION
4
       183,2, 0.1000000000000E+01,       183,3, 0.0000000000000E+00,       183,1, 0.0000000000000E+00,       418,1,-1.
*BOUNDARY
       418,1,1, 0.2113421364339E-01
*EQUATION
4
       184,2, 0.1000000000000E+01,       184,3, 0.0000000000000E+00,       184,1, 0.0000000000000E+00,       419,1,-1.
*BOUNDARY
       419,1,1, 0.2099369650733E-01
*EQUATION
4
       185,2, 0.1000000000000E+01,       185,3, 0.0000000000000E+00,       185,1, 0.0000000000000E+00,       420,1,-1.
*BOUNDARY
       420,1,1,-0.3482314825525E-03
*EQUATION
4
       186,2, 0.1000000000000E+01,       186,3, 0.0000000000000E+00,       186,1, 0.0000000000000E+00,       421,1,-1.
*BOUNDARY
       421,1,1,-0.2037621002248E-01
*EQUATION
4
       187,2, 0.1000000000000E+01,       187,3, 0.0000000000000E+00,       187,1, 0.0000000000000E+00,       422,1,-1.
*BOUNDARY
       422,1,1,-0.2046619466100E-01
*EQUATION
4
       188,2, 0.1000000000000E+01,       188,3, 0.0000000000000E+00,       188,1, 0.0000000000000E+00,       423,1,-1.
*BOUNDARY
       423,1,1,-0.2041549639258E-01
*EQUATION
4
       189,2, 0.1000000000000E+01,       189,3, 0.0000000000000E+00,       189,1, 0.0000000000000E+00,       424,1,-1.
*BOUNDARY
       424,1,1,-0.3276062038686E-01
*EQUATION
4
       190,1,-0.1000000000000E+01,       190,2, 0.0000000000000E+00,       190,3, 0.0000000000000E+00,       425,1,-1.
*BOUNDARY
       425,1,1,-0.6067552139452E-01
*EQUATION
4
       191,1,-0.1000000000000E+01,       191,2, 0.0000000000000E+00,       191,3, 0.0000000000000E+00,       426,1,-1.
*BOUNDARY
       426,1,1,-0.5154099075469E-01
*EQUATION
4
       192,1,-0.1000000000000E+01,       192,2, 0.0000000000000E+00,       192,3, 0.0000000000000E+00,       427,1,-1.
*BOUNDARY
       427,1,1,-0.5177680760447E-01
*EQUATION
4
       193,1,-0.1000000000000E+01,       193,2, 0.0000000000000E+00,       193,3, 0.0000000000000E+00,       428,1,-1.
*BOUNDARY
       428,1,1,-0.5165433419330E-01
*EQUATION
4
       194,1,-0.1000000000000E+01,       194,2, 0.0000000000000E+00,       194,3, 0.0000000000000E+00,       429,1,-1.
*BOUNDARY
       429,1,1,-0.3761316885722E-01
*EQUATION
4
       195,1,-0.1000000000000E+01,       195,2, 0.0000000000000E+00,       195,3, 0.0000000000000E+00,       430,1,-1.
*BOUNDARY
       430,1,1,-0.2200981756675E-01
*EQUATION
4
       196,1,-0.1000000000000E+01,       196,2, 0.0000000000000E+00,       196,3, 0.0000000000000E+00,       431,1,-1.
*BOUNDARY
       431,1,1,-0.2217694997284E-01
*EQUATION
4
       197,1,-0.1000000000000E+01,       197,2, 0.0000000000000E+00,       197,3, 0.0000000000000E+00,       432,1,-1.
*BOUNDARY
       432,1,1,-0.2209959896321E-01
*EQUATION
4
       198,1,-0.1000000000000E+01,       198,2, 0.0000000000000E+00,       198,3, 0.0000000000000E+00,       433,1,-1.
*BOUNDARY
       433,1,1,-0.5606946849838E-02
*EQUATION
4
       199,1,-0.1000000000000E+01,       199,2, 0.0000000000000E+00,       199,3, 0.0000000000000E+00,       434,1,-1.
*BOUNDARY
       434,1,1, 0.1016744230972E-01
*EQUATION
4
       200,1,-0.1000000000000E+01,       200,2, 0.0000000000000E+00,       200,3, 0.0000000000000E+00,       435,1,-1.
*BOUNDARY
       435,1,1, 0.1011092985893E-01
*EQUATION
4
       201,1,-0.1000000000000E+01,       201,2, 0.0000000000000E+00,       201,3, 0.0000000000000E+00,       436,1,-1.
*BOUNDARY
       436,1,1, 0.1030029251153E-01
*EQUATION
4
       202,1,-0.1000000000000E+01,       202,2, 0.0000000000000E+00,       202,3, 0.0000000000000E+00,       437,1,-1.
*BOUNDARY
       437,1,1, 0.2156234146874E-01
*EQUATION
4
       203,1,-0.1000000000000E+01,       203,2, 0.0000000000000E+00,       203,3, 0.0000000000000E+00,       438,1,-1.
*BOUNDARY
       438,1,1, 0.2704681332199E-01
*EQUATION
4
       204,1,-0.1000000000000E+01,       204,2, 0.0000000000000E+00,       204,3, 0.0000000000000E+00,       439,1,-1.
*BOUNDARY
       439,1,1, 0.2706238547846E-01
*EQUATION
4
       205,1,-0.1000000000000E+01,       205,2, 0.0000000000000E+00,       205,3, 0.0000000000000E+00,       440,1,-1.
*BOUNDARY
       440,1,1, 0.2728013957721E-01
*EQUATION
4
       206,1,-0.1000000000000E+01,       206,2, 0.0000000000000E+00,       206,3, 0.0000000000000E+00,       441,1,-1.
*BOUNDARY
       441,1,1, 0.2152236563454E-01
*EQUATION
4
       207,1,-0.1000000000000E+01,       207,2, 0.0000000000000E+00,       207,3, 0.0000000000000E+00,       442,1,-1.
*BOUNDARY
       442,1,1, 0.1008310778133E-01
*EQUATION
4
       208,1,-0.1000000000000E+01,       208,2, 0.0000000000000E+00,       208,3, 0.0000000000000E+00,       443,1,-1.
*BOUNDARY
       443,1,1, 0.1003381980882E-01
*EQUATION
4
       209,1,-0.1000000000000E+01,       209,2, 0.0000000000000E+00,       209,3, 0.0000000000000E+00,       444,1,-1.
*BOUNDARY
       444,1,1, 0.1023034858047E-01
*EQUATION
4
       210,1,-0.1000000000000E+01,       210,2, 0.0000000000000E+00,       210,3, 0.0000000000000E+00,       445,1,-1.
*BOUNDARY
       445,1,1,-0.5710427630651E-02
*EQUATION
4
       211,1,-0.1000000000000E+01,       211,2, 0.0000000000000E+00,       211,3, 0.0000000000000E+00,       446,1,-1.
*BOUNDARY
       446,1,1,-0.2214516591767E-01
*EQUATION
4
       212,1,-0.1000000000000E+01,       212,2, 0.0000000000000E+00,       212,3, 0.0000000000000E+00,       447,1,-1.
*BOUNDARY
       447,1,1,-0.2230060896879E-01
*EQUATION
4
       213,1,-0.1000000000000E+01,       213,2, 0.0000000000000E+00,       213,3, 0.0000000000000E+00,       448,1,-1.
*BOUNDARY
       448,1,1,-0.2221166556025E-01
*EQUATION
4
       214,1,-0.1000000000000E+01,       214,2, 0.0000000000000E+00,       214,3, 0.0000000000000E+00,       449,1,-1.
*BOUNDARY
       449,1,1,-0.3774806543397E-01
*EQUATION
4
       215,1,-0.1000000000000E+01,       215,2, 0.0000000000000E+00,       215,3, 0.0000000000000E+00,       450,1,-1.
*BOUNDARY
       450,1,1,-0.5169617516885E-01
*EQUATION
4
       216,1,-0.1000000000000E+01,       216,2, 0.0000000000000E+00,       216,3, 0.0000000000000E+00,       451,1,-1.
*BOUNDARY
       451,1,1,-0.5191804741679E-01
*EQUATION
4
       217,1,-0.1000000000000E+01,       217,2, 0.0000000000000E+00,       217,3, 0.0000000000000E+00,       452,1,-1.
*BOUNDARY
       452,1,1,-0.5178175364764E-01
*EQUATION
4
       218,1,-0.1000000000000E+01,       218,2, 0.0000000000000E+00,       218,3, 0.0000000000000E+00,       453,1,-1.
*BOUNDARY
       453,1,1,-0.6081485803348E-01
*STEP
*STATIC
*NODE FILE
U
*END STEP
