**
**   Structure: cantilever beam.
**   Test objective: Johnson-Cook, explicit dynamics, C3D8R.
**
*Node
      1,        43.75,           0.,         0.75
      2,     43.74506,  0.711005688,         0.75
      3,   43.7302322,   1.42187405,         0.75
      4,   43.7055283,   2.13246751,         0.75
      5,    43.670948,   2.84264898,         0.75
      6,   43.6264992,   3.55228138,         0.75
      7,   43.5721931,   4.26122713,         0.75
      8,   43.5080338,   4.96934938,         0.75
      9,   43.4340401,   5.67651176,         0.75
     10,   43.3502235,   6.38257694,         0.75
     11,   43.2565994,   7.08740902,         0.75
     12,   43.1531868,   7.79087162,         0.75
     13,   43.0400085,   8.49282837,         0.75
     14,   42.9170799,    9.1931448,         0.75
     15,   42.7844315,   9.89168453,         0.75
     16,   42.6420822,   10.5883121,         0.75
     17,   42.4900665,   11.2828941,         0.75
     18,   42.3284111,    11.975297,         0.75
     19,   42.1571426,   12.6653843,         0.75
     20,   41.9763031,   13.3530254,         0.75
** ... 2032 like lines cut
*Element, type=C3D8R
  1,  229,  230,  344,  343,    1,    2,  116,  115
  2,  230,  231,  345,  344,    2,    3,  117,  116
  3,  231,  232,  346,  345,    3,    4,  118,  117
  4,  232,  233,  347,  346,    4,    5,  119,  118
  5,  233,  234,  348,  347,    5,    6,  120,  119
  6,  234,  235,  349,  348,    6,    7,  121,  120
  7,  235,  236,  350,  349,    7,    8,  122,  121
  8,  236,  237,  351,  350,    8,    9,  123,  122
  9,  237,  238,  352,  351,    9,   10,  124,  123
 10,  238,  239,  353,  352,   10,   11,  125,  124
 11,  239,  240,  354,  353,   11,   12,  126,  125
 12,  240,  241,  355,  354,   12,   13,  127,  126
 13,  241,  242,  356,  355,   13,   14,  128,  127
 14,  242,  243,  357,  356,   14,   15,  129,  128
 15,  243,  244,  358,  357,   15,   16,  130,  129
 16,  244,  245,  359,  358,   16,   17,  131,  130
 17,  245,  246,  360,  359,   17,   18,  132,  131
 18,  246,  247,  361,  360,   18,   19,  133,  132
 19,  247,  248,  362,  361,   19,   20,  134,  133
 20,  248,  249,  363,  362,   20,   21,  135,  134
** ... 884 like lines cut
*Nset, nset=set2, generate
    1,  2052,     1
*Elset, elset=set2, generate
   1,  904,    1
*Solid Section, elset=set2, material=johnsoncooksteel
*Nset, nset=set5, generate
    1,  1939,   114
*Elset, elset=set5, generate
   1,  792,  113
*Nset, nset=set6, generate
  114,  2052,   114
*Elset, elset=set6, generate
 113,  904,  113
*Nset, nset=set7,
    1,    2,    3,    4,    5,    6,    7,    8,    9,   10,   11,   12,   13,   14,   15,   16
   17,   18,   19,   20,   21,   22,   23,   24,   25,   26,   27,   28,   29,   30,   31,   32
   33,   34,   35,   36,   37,   38,   39,   40,   41,   42,   43,   44,   45,   46,   47,   48
   49,   50,   51,   52,   53,   54,   55,   56,   57,   58,   59,   60,   61,   62,   63,   64
   65,   66,   67,   68,   69,   70,   71,   72,   73,   74,   75,   76,   77,   78,   79,   80
   81,   82,   83,   84,   85,   86,   87,   88,   89,   90,   91,   92,   93,   94,   95,   96
   97,   98,   99,  100,  101,  102,  103,  104,  105,  106,  107,  108,  109,  110,  111,  112
  113,  114,  229,  230,  231,  232,  233,  234,  235,  236,  237,  238,  239,  240,  241,  242
  243,  244,  245,  246,  247,  248,  249,  250,  251,  252,  253,  254,  255,  256,  257,  258
  259,  260,  261,  262,  263,  264,  265,  266,  267,  268,  269,  270,  271,  272,  273,  274
  275,  276,  277,  278,  279,  280,  281,  282,  283,  284,  285,  286,  287,  288,  289,  290
  291,  292,  293,  294,  295,  296,  297,  298,  299,  300,  301,  302,  303,  304,  305,  306
  307,  308,  309,  310,  311,  312,  313,  314,  315,  316,  317,  318,  319,  320,  321,  322
  323,  324,  325,  326,  327,  328,  329,  330,  331,  332,  333,  334,  335,  336,  337,  338
  339,  340,  341,  342,  457,  458,  459,  460,  461,  462,  463,  464,  465,  466,  467,  468
  469,  470,  471,  472,  473,  474,  475,  476,  477,  478,  479,  480,  481,  482,  483,  484
  485,  486,  487,  488,  489,  490,  491,  492,  493,  494,  495,  496,  497,  498,  499,  500
  501,  502,  503,  504,  505,  506,  507,  508,  509,  510,  511,  512,  513,  514,  515,  516
  517,  518,  519,  520,  521,  522,  523,  524,  525,  526,  527,  528,  529,  530,  531,  532
  533,  534,  535,  536,  537,  538,  539,  540,  541,  542,  543,  544,  545,  546,  547,  548
** ... 45 like lines cut
*Elset, elset=set7, generate
   1,  904,    1
*Elset, elset=_PickedSurf4_S2, generate
   1,  113,    1
*Surface, type=ELEMENT, name=PickedSurf4,
_PickedSurf4_S2, S2
*Amplitude, name="Druckkurve1820mm von DDT", time=TOTAL TIME
0.0,140.,0.000125,80.
*MATERIAL,NAME=JOHNSONCOOKSTEEL
*ELASTIC
200000.,.35
*PLASTIC,HARDENING=JOHNSON COOK
240.,1220.,.66,0.77
*RATE DEPENDENT,TYPE=JOHNSON COOK
0.0298,1.
*DENSITY
7.85e-09
*ELSET,ELSET=E1
1,114,227,340,453,566,679,792
*Step, nlgeom, inc=100000000
*dynamic, explicit
1e-6, 0.00001
*Boundary
set6, 1 , 1
*Boundary
set5, 2 , 2
*Boundary
set7, 3 , 3
*Dsload, amplitude="Druckkurve1820mm von DDT"
PickedSurf4, P, 1
*el PRINT, frequency=10000,ELSET=E1
peeq
*endstep
