**
**   Structure: fluid flow between two plates.
**   Test objective: stationary incompressible Couette
**                   with fixed wall temperature.
**                   velocity:linear between 0. and 1.
**                   temperature: maximum of 1.125
**                   slanted mesh
**                   CBS-Method
**
*NODE, NSET=Nall
       1,0.000000000000e+00,1.000000000000e+00,1.000000000000e-01
       2,0.000000000000e+00,1.000000000000e+00,0.000000000000e+00
       3,5.000000000000e-01,1.000000000000e+00,0.000000000000e+00
       4,5.000000000000e-01,1.000000000000e+00,1.000000000000e-01
       5,0.000000000000e+00,9.000000000000e-01,1.000000000000e-01
       6,0.000000000000e+00,9.000000000000e-01,0.000000000000e+00
       7,5.000000000000e-01,9.368182421482e-01,-6.938893903907e-18
       8,5.000000000000e-01,9.368182421482e-01,1.000000000000e-01
       9,1.000000000000e+00,1.000000000000e+00,0.000000000000e+00
      10,1.000000000000e+00,1.000000000000e+00,1.000000000000e-01
      11,1.000000000000e+00,9.736364842965e-01,0.000000000000e+00
      12,1.000000000000e+00,9.736364842965e-01,1.000000000000e-01
      13,0.000000000000e+00,8.000000000000e-01,1.000000000000e-01
      14,0.000000000000e+00,8.000000000000e-01,0.000000000000e+00
      15,5.000000000000e-01,8.699914908864e-01,6.938893903907e-18
      16,5.000000000000e-01,8.699914908864e-01,1.000000000000e-01
      17,1.000000000000e+00,9.399829817728e-01,0.000000000000e+00
      18,1.000000000000e+00,9.399829817728e-01,1.000000000000e-01
      19,0.000000000000e+00,7.000000000000e-01,1.000000000000e-01
      20,0.000000000000e+00,7.000000000000e-01,0.000000000000e+00
** ... 266 like lines cut
*ELEMENT, TYPE=F3D8, ELSET=Eall
     1,     1,     2,     3,     4,     5,     6,     7,     8
     2,     4,     3,     9,    10,     8,     7,    11,    12
     3,     5,     6,     7,     8,    13,    14,    15,    16
     4,     8,     7,    11,    12,    16,    15,    17,    18
     5,    13,    14,    15,    16,    19,    20,    21,    22
     6,    16,    15,    17,    18,    22,    21,    23,    24
     7,    19,    20,    21,    22,    25,    26,    27,    28
     8,    22,    21,    23,    24,    28,    27,    29,    30
     9,    25,    26,    27,    28,    31,    32,    33,    34
    10,    28,    27,    29,    30,    34,    33,    35,    36
    11,    31,    32,    33,    34,    37,    38,    39,    40
    12,    34,    33,    35,    36,    40,    39,    41,    42
    13,    37,    38,    39,    40,    43,    44,    45,    46
    14,    40,    39,    41,    42,    46,    45,    47,    48
    15,    43,    44,    45,    46,    49,    50,    51,    52
    16,    46,    45,    47,    48,    52,    51,    53,    54
    17,    49,    50,    51,    52,    55,    56,    57,    58
    18,    52,    51,    53,    54,    58,    57,    59,    60
    19,    55,    56,    57,    58,    61,    62,    63,    64
    20,    58,    57,    59,    60,    64,    63,    65,    66
** ... 100 like lines cut
** Names based on in
*NSET,NSET=Nin 
5, 
6, 
13, 
14, 
19, 
20, 
25, 
26, 
31, 
32, 
37, 
38, 
43, 
44, 
49, 
50, 
55, 
56, 
** Names based on out
*NSET,NSET=Nout 
249, 
250, 
253, 
254, 
257, 
258, 
261, 
262, 
265, 
266, 
269, 
270, 
273, 
274, 
277, 
278, 
281, 
282, 
** Names based on wall
*NSET,NSET=Nwall 
61, 
62, 
63, 
64, 
65, 
66, 
107, 
108, 
109, 
110, 
151, 
152, 
153, 
154, 
195, 
196, 
197, 
198, 
239, 
240, 
** ... 6 like lines cut
** Names based on unitvel
*NSET,NSET=Nunitvel 
1, 
2, 
3, 
4, 
9, 
10, 
67, 
68, 
71, 
72, 
111, 
112, 
115, 
116, 
155, 
156, 
159, 
160, 
199, 
200, 
** ... 6 like lines cut
*MATERIAL,NAME=WATER
*DENSITY
1.
*FLUID CONSTANTS
1.,1.
*CONDUCTIVITY
1.
*SOLID SECTION,ELSET=Eall,MATERIAL=WATER
*INITIAL CONDITIONS,TYPE=FLUID VELOCITY
Nall,1,0.
Nall,2,0.
Nall,3,0.
*INITIAL CONDITIONS,TYPE=PRESSURE
Nall,1.
*INITIAL CONDITIONS,TYPE=TEMPERATURE
Nall,0.
*STEP,INCF=10000
*CFD,STEADY STATE
1.,1.,,
*BOUNDARY
Nall,3,3,0.
Nwall,1,2,0.
Nunitvel,1,1,1.
Nunitvel,2,2,0.
55,1,1,0.1
56,1,1,0.1
49,1,1,0.2
50,1,1,0.2
43,1,1,0.3
44,1,1,0.3
37,1,1,0.4
38,1,1,0.4
31,1,1,0.5
32,1,1,0.5
25,1,1,0.6
26,1,1,0.6
19,1,1,0.7
20,1,1,0.7
13,1,1,0.8
14,1,1,0.8
5,1,1,0.9
6,1,1,0.9
Nin,2,2,0.
Nin,11,11,0.
Nwall,11,11,0.
Nunitvel,11,11,0.
Nout,8,8,1.
*NODE PRINT,FREQUENCYF=3000,NSET=Nall
VF,PSF,TSF
*END STEP
