**
**   Structure: 3d submodel subject to heat transfer
**   Test objective: temperature boundary conditions are
**                   interpolated from the 2d axisymmetric
**                   model global_2d3d_thermal.frd
**
*NODE, NSET=NALL
         1,  129.99398432514,  44.490304715049,  -9.37512594E-07
         2,  130.25624833542,  42.990304601888,  -8.80222604E-07
         3,  130.5185123457 ,  41.490304488727,  -8.22933606E-07
         4,  130.78077635598,  39.990304375566,  -7.65642742E-07
         5,  131.04304036626,  38.490304262404,  -7.08353747E-07
         6,  131.30530437654,  36.990304149243,  -6.51063754E-07
         7,  131.56756838682,  35.490304036082,  -5.93773889E-07
         8,  131.8298323971 ,  33.990303922921,  -5.36483896E-07
         9,  132.09209640738,  32.49030380976 ,  -4.79194029E-07
        10,  132.35436041766,  30.990303696599,  -4.21904037E-07
        11,  132.61662442793,  29.490303583438,  -3.64614168E-07
        12,  134.49818997791,  29.490302771584,  -3.59837269E-07
        13,  136.37975552789,  29.490301959731,  -3.55061369E-07
        14,  136.37975617511,  30.990301971832,  -4.11685580E-07
        15,  136.37975682232,  32.490301983934,  -4.68309793E-07
        16,  136.37975746953,  33.990301996035,  -5.24933135E-07
        17,  136.37975811675,  35.490302008136,  -5.81557348E-07
        18,  136.37975876397,  36.990302020238,  -6.38181559E-07
        19,  136.37975941119,  38.490302032339,  -6.94805774E-07
        20,  136.3797600584 ,  39.990302044441,  -7.51429987E-07
** ... 846 like lines cut
*ELEMENT,TYPE=C3D15, ELSET=EALL
         3,        28,         7,         9,       150,       155,       144,        29,         8,
        31,       154,       157,       152,       151,       156,       145
        10,        44,        46,        48,       191,       194,       197,        45,        47,
        72,       193,       196,       199,       192,       195,       198
        12,        75,        48,        50,       204,       197,       208,        73,        49,
        76,       203,       207,       210,       205,       198,       209
        28,        66,       103,        64,       275,       264,       267,       104,       105,
        65,       274,       269,       278,       276,       265,       268
        36,       110,       130,       108,       306,       302,       309,       131,       134,
       109,       305,       311,       313,       307,       303,       310
        40,       150,       155,       144,       333,       338,       327,       154,       157,
       152,       337,       340,       335,       334,       339,       328
        47,       191,       194,       197,       374,       377,       380,       193,       196,
       199,       376,       379,       382,       375,       378,       381
        49,       204,       197,       208,       387,       380,       391,       203,       207,
       210,       386,       390,       393,       388,       381,       392
        65,       275,       264,       267,       458,       447,       450,       274,       269,
       278,       457,       452,       461,       459,       448,       451
        73,       306,       302,       309,       489,       485,       492,       305,       311,
       313,       488,       494,       496,       490,       486,       493
** ... 20 like lines cut
*ELEMENT,TYPE=C3D20R, ELSET=EALL
         1,        11,        13,        15,         9,       135,       138,       141,       144,
        12,        14,        30,        10,       137,       140,       143,
       146,       136,       139,       142,       145
         2,        17,        28,         9,        15,       147,       150,       144,       141,
        27,        31,        30,        16,       149,       152,       143,
       153,       148,       151,       145,       142
         4,        19,        33,        28,        17,       158,       161,       150,       147,
        32,        35,        27,        18,       160,       163,       149,
       164,       159,       162,       151,       148
         5,        33,         5,         7,        28,       161,       166,       155,       150,
        34,         6,        29,        35,       165,       168,       154,
       163,       162,       167,       156,       151
         6,        21,        37,        33,        19,       169,       172,       161,       158,
        36,        39,        32,        20,       171,       174,       160,
       175,       170,       173,       162,       159
         7,        37,         3,         5,        33,       172,       177,       166,       161,
        38,         4,        34,        39,       176,       179,       165,
       174,       173,       178,       167,       162
         8,        23,        25,        37,        21,       180,       183,       172,       169,
        24,        40,        36,        22,       182,       185,       171,
** ... 364 like lines cut
*NSET, NSET=INTERFACE
         1,         2,         3,         4,         5,         6,         7,         8,
         9,        10,        11,        46,        47,        48,        49,        50,
        64,        65,        66,        67,        68,       106,       107,       108,
       109,       110,       111,       112,       113,       114,       115,       116,
       135,       136,       144,       145,       146,       155,       156,       157,
       166,       167,       168,       177,       178,       179,       188,       189,
       190,       194,       195,       196,       197,       198,       207,       208,
       209,       267,       268,       271,       272,       275,       276,       277,
       278,       287,       288,       289,       290,       291,       298,       299,
       300,       306,       307,       308,       309,       310,       313,       315,
       316,       317,       318,       319,       327,       328,       329,       338,
       339,       340,       349,       350,       351,       360,       361,       362,
       371,       372,       373,       377,       378,       379,       380,       381,
       390,       391,       392,       450,       451,       454,       455,       458,
       459,       460,       461,       470,       471,       472,       473,       474,
       481,       482,       483,       489,       490,       491,       492,       493,
       496,       498,       499,       500,       501,       502,       510,       511,
       512,       521,       522,       523,       532,       533,       534,       543,
       544,       545,       554,       555,       556,       560,       561,       562,
       563,       564,       573,       574,       575,       633,       634,       637,
** ... 35 like lines cut
*MATERIAL,NAME=EL
*CONDUCTIVITY
50.,0.
*ELASTIC
210000.,.3
*EXPANSION
25.E-6
*DENSITY
7.8E-9
*SPECIFIC HEAT
446.E6
*SOLID SECTION, ELSET=EALL, MATERIAL=EL
*SUBMODEL, TYPE=NODE, INPUT=global_2d3d_thermal.frd
INTERFACE
*STEP, NLGEOM=YES
*HEAT TRANSFER, STEADY STATE
1.0, 1.0, 1e-6, 1.0
*BOUNDARY, SUBMODEL, MASTER=2D, STEP=1
INTERFACE, 11, 11
*NODE PRINT,NSET=INTERFACE
NT
*END STEP
