**
**   Structure: one beam consisting of two parts
**              glued together with MPC's
**   Test objective: submodel technique for heat transfer.
**
*NODE, NSET=Nall
      38,1.000000000000e+00,0.000000000000e+00,3.000000000000e+00
      39,1.000000000000e+00,0.000000000000e+00,3.500000000000e+00
      40,1.000000000000e+00,0.000000000000e+00,4.000000000000e+00
     113,5.000000000000e-01,0.000000000000e+00,3.000000000000e+00
     114,7.500000000000e-01,0.000000000000e+00,3.000000000000e+00
     115,5.000000000000e-01,0.000000000000e+00,3.500000000000e+00
     117,5.000000000000e-01,0.000000000000e+00,4.000000000000e+00
     118,7.500000000000e-01,0.000000000000e+00,4.000000000000e+00
     141,1.000000000000e+00,2.500000000000e-01,3.000000000000e+00
     142,1.000000000000e+00,5.000000000000e-01,3.000000000000e+00
     144,1.000000000000e+00,5.000000000000e-01,3.500000000000e+00
     145,1.000000000000e+00,2.500000000000e-01,4.000000000000e+00
     146,1.000000000000e+00,5.000000000000e-01,4.000000000000e+00
     232,5.000000000000e-01,2.500000000000e-01,3.000000000000e+00
     234,5.000000000000e-01,5.000000000000e-01,3.000000000000e+00
     235,7.500000000000e-01,5.000000000000e-01,3.000000000000e+00
     237,5.000000000000e-01,5.000000000000e-01,3.500000000000e+00
     238,5.000000000000e-01,2.500000000000e-01,4.000000000000e+00
     240,5.000000000000e-01,5.000000000000e-01,4.000000000000e+00
     241,7.500000000000e-01,5.000000000000e-01,4.000000000000e+00
** ... 20 like lines cut
*ELEMENT, TYPE=C3D20, ELSET=Eall
    14,   113,    38,   142,   234,   117,    40,   146,   240,   114,   141,
         235,   232,   118,   145,   241,   238,   115,    39,   144,   237
    18,   297,   259,   313,   362,   301,   261,   317,   368,   298,   312,
         363,   360,   302,   316,   369,   366,   299,   260,   315,   365
*EQUATION
2
146,0,1.,313,0,-1.
2
145,0,1.,312,0,-1.
2
40,0,1.,259,0,-1.
2
118,0,1.,298,0,-1.
2
117,0,1.,297,0,-1.
2
238,0,1.,360,0,-1.
2
240,0,1.,362,0,-1.
2
241,0,1.,363,0,-1.
** Names based on d1
*NSET,NSET=Nd1 
38, 
39, 
40, 
113, 
114, 
115, 
117, 
118, 
141, 
142, 
144, 
145, 
146, 
232, 
234, 
235, 
237, 
238, 
240, 
241, 
*ELSET,ELSET=Ed1 
14, 
** Names based on d2
*NSET,NSET=Nd2 
259, 
260, 
261, 
297, 
298, 
299, 
301, 
302, 
312, 
313, 
315, 
316, 
317, 
360, 
362, 
363, 
365, 
366, 
368, 
369, 
*ELSET,ELSET=Ed2 
18, 
*SUBMODEL,TYPE=NODE,INPUT=twobeam.frd,GLOBAL ELSET=Ed1
Nd1
*SUBMODEL,TYPE=NODE,INPUT=twobeam.frd,GLOBAL ELSET=Ed2
Nd2
*MATERIAL,NAME=EL
*CONDUCTIVITY
50.,0.
*SOLID SECTION,ELSET=Eall,MATERIAL=EL
*INITIAL CONDITIONS,TYPE=TEMPERATURE
Nall,300.
*STEP
*HEAT TRANSFER,STEADY STATE
*BOUNDARY,SUBMODEL,STEP=1
38,0,0
301,0,0
*NODE FILE
NT
*END STEP
