**
**   Structure: cantilever beam.
**   Test objective: user beam element U1
**                   mass matrix (frequency calculation)
**
*NODE, NSET=NALL
1,    0.0000000,    0.0000000,    0.0000000
2,    0.2165064,    0.1250000,    0.0000000
3,    0.4330127,    0.2500000,    0.0000000
4,    0.6495191,    0.3750000,    0.0000000
5,    0.8660254,    0.5000000,    0.0000000
6,    1.0825318,    0.6250000,    0.0000000
7,    1.2990381,    0.7500000,    0.0000000
8,    1.5155445,    0.8750000,    0.0000000
9,    1.7320508,    1.0000000,    0.0000000
10,    1.9485572,    1.1250000,    0.0000000
11,    2.1650635,    1.2500000,    0.0000000
12,    2.3815699,    1.3750000,    0.0000000
13,    2.5980762,    1.5000000,    0.0000000
14,    2.8145826,    1.6250000,    0.0000000
15,    3.0310889,    1.7500000,    0.0000000
16,    3.2475953,    1.8750000,    0.0000000
17,    3.4641016,    2.0000000,    0.0000000
18,    3.6806080,    2.1250000,    0.0000000
19,    3.8971143,    2.2500000,    0.0000000
20,    4.1136207,    2.3750000,    0.0000000
** ... 29 like lines cut
*ELEMENT, TYPE=U1, ELSET=EALL
1,  1, 2
2,  2, 3
3,  3, 4
4,  4, 5
5,  5, 6
6,  6, 7
7,  7, 8
8,  8, 9
9,  9, 10
10,  10, 11
11,  11, 12
12,  12, 13
13,  13, 14
14,  14, 15
15,  15, 16
16,  16, 17
17,  17, 18
18,  18, 19
19,  19, 20
20,  20, 21
** ... 28 like lines cut
*USER ELEMENT,TYPE=U1,NODES=2,INTEGRATION POINTS=2,MAXDOF=6
*BEAM SECTION, SECTION=GENERAL, ELSET=EALL, MATERIAL=STEEL
.50, 4.1667e-02, 0.0, 1.0417e-02, 0.833333
0.,1.,0.
*MATERIAL, NAME=STEEL
*ELASTIC
2.1e+05, 0.0
*DENSITY
7.8e-09
*BOUNDARY, OP=NEW
1, 1,6, 0.0
*STEP
*FREQUENCY
24
*END STEP
