**
**   Structure: cantilever beam.
**   Test objective: aleatoric change of MEANROTBS equations.
**                   example provided by Victor Kemp
**
*NODE
1,0,0,0
2,0.7,1.4,-2
*ELEMENT,TYPE=B31,ELSET=Default
1,1,2
*MATERIAL,NAME=Material
*ELASTIC,TYPE=ISOTROPIC
200000000000,0
*BEAM SECTION,ELSET=Default,MATERIAL=Material,SECTION=RECT
0.1,0.3
-0.894427191,0.447213595499,0
*BOUNDARY
1,1,6,0
*STEP
*STATIC
*CLOAD
2,2,1.
*NODE FILE
U
*END STEP
