** Cantilever beam (B32R), 1 element, end load in +X
*NODE,NSET=NALL
1, 0, 0,   0
2, 0, 0,  50
3, 0, 0, 100
*ELEMENT,TYPE=B32R,ELSET=EALL
1,1,2,3
*NSET,NSET=TIP
1
*NSET,NSET=FIX
3
*BOUNDARY
3,1,6
*MATERIAL,NAME=MAT
*ELASTIC
1.E7, .3
*BEAM SECTION,ELSET=EALL,MATERIAL=MAT,SECTION=RECT
2.,2.
1.,0.,0.
*STEP
*STATIC
*CLOAD
1,1,1.
*NODE PRINT,NSET=TIP
U
*END STEP
