** Simply supported beam (B32R), 1 element, midspan load in +X
*NODE,NSET=NALL
1, 0, 0,   0
2, 0, 0,  50
3, 0, 0, 100
*ELEMENT,TYPE=B32R,ELSET=EALL
1,1,2,3
*NSET,NSET=MID
2
*BOUNDARY
1,1,3
1,6,6
3,1,2
*MATERIAL,NAME=MAT
*ELASTIC
1.E7, .3
*BEAM SECTION,ELSET=EALL,MATERIAL=MAT,SECTION=RECT
2.,2.
1.,0.,0.
*STEP
*STATIC
*CLOAD
2,1,1.
*NODE PRINT,NSET=MID
U
*END STEP
