**
** Rotational spring test (nonlinear SPRING2 on DOF 6).
** Piecewise M-θ curve with a small post-yield slope.
**
*NODE
1, 0., 0., 0.
2, 1., 0., 0.
*ELEMENT, TYPE=B31, ELSET=E_BEAM
1, 1, 2
*ELEMENT, TYPE=SPRING2, ELSET=E_SPRING
2, 1, 2
*MATERIAL, NAME=SOFT_BEAM
*ELASTIC
1.0E-6, 0.3
*BEAM SECTION, MATERIAL=SOFT_BEAM, ELSET=E_BEAM, SECTION=RECT
1.0E-6, 1.0E-6
0., 0., 1.
*BOUNDARY
1, 1, 6
2, 1, 5
*SPRING, ELSET=E_SPRING, NONLINEAR
6, 6
0., 0.
0.001, 1.0
0.01, 1.1
*NSET, NSET=N2
2
*STEP
*STATIC
*CLOAD
2, 6, 1.05
*NODE PRINT, NSET=N2
U
*END STEP
