**
** Rotational spring test (linear SPRING2 on DOF 6).
** Rotation about z (DOF 6) is restrained only by the spring.
**
*NODE
1, 0., 0., 0.
2, 1., 0., 0.
*ELEMENT, TYPE=B31, ELSET=E_BEAM
1, 1, 2
*ELEMENT, TYPE=SPRING2, ELSET=E_SPRING
2, 1, 2
*MATERIAL, NAME=SOFT_BEAM
*ELASTIC
1.0E-6, 0.3
*BEAM SECTION, MATERIAL=SOFT_BEAM, ELSET=E_BEAM, SECTION=RECT
1.0E-6, 1.0E-6
0., 0., 1.
*BOUNDARY
1, 1, 6
2, 1, 5
*SPRING, ELSET=E_SPRING
6, 6
1000.
*NSET, NSET=N2
2
*STEP
*STATIC
*CLOAD
2, 6, 1.0
*NODE PRINT, NSET=N2
U
*END STEP
