*HEADING
Portal frame B31 + rotational hinges (SPRING2 DOF6) + earthquake body-acceleration
** Units: m, N, kg, s. Rotations: rad. Moments: N*m.

*NODE
1, 0.00000000e+00, 0.00000000e+00, 0.00000000e+00
2, 0.00000000e+00, 3.00000000e-01, 0.00000000e+00
3, 0.00000000e+00, 6.00000000e-01, 0.00000000e+00
4, 0.00000000e+00, 9.00000000e-01, 0.00000000e+00
5, 0.00000000e+00, 1.20000000e+00, 0.00000000e+00
6, 0.00000000e+00, 1.50000000e+00, 0.00000000e+00
7, 0.00000000e+00, 1.80000000e+00, 0.00000000e+00
8, 0.00000000e+00, 2.10000000e+00, 0.00000000e+00
9, 0.00000000e+00, 2.40000000e+00, 0.00000000e+00
10, 0.00000000e+00, 2.70000000e+00, 0.00000000e+00
11, 0.00000000e+00, 3.00000000e+00, 0.00000000e+00
12, 4.00000000e+00, 0.00000000e+00, 0.00000000e+00
13, 4.00000000e+00, 3.00000000e-01, 0.00000000e+00
14, 4.00000000e+00, 6.00000000e-01, 0.00000000e+00
15, 4.00000000e+00, 9.00000000e-01, 0.00000000e+00
16, 4.00000000e+00, 1.20000000e+00, 0.00000000e+00
17, 4.00000000e+00, 1.50000000e+00, 0.00000000e+00
18, 4.00000000e+00, 1.80000000e+00, 0.00000000e+00
19, 4.00000000e+00, 2.10000000e+00, 0.00000000e+00
20, 4.00000000e+00, 2.40000000e+00, 0.00000000e+00
** ... 19 like lines cut
*NSET, NSET=FIXED_BASE
1, 12
*NSET, NSET=TOP_NODES
34, 35
*NSET, NSET=ROT_DUMMIES
36, 37, 38, 39
*ELEMENT, TYPE=B31, ELSET=E_COL
1, 1, 2
2, 2, 3
3, 3, 4
4, 4, 5
5, 5, 6
6, 6, 7
7, 7, 8
8, 8, 9
9, 9, 10
10, 10, 11
11, 12, 13
12, 13, 14
13, 14, 15
14, 15, 16
15, 16, 17
16, 17, 18
17, 18, 19
18, 19, 20
19, 20, 21
20, 21, 22
*ELEMENT, TYPE=B31, ELSET=E_BEAM
21, 34, 23
22, 23, 24
23, 24, 25
24, 25, 26
25, 26, 27
26, 27, 28
27, 28, 29
28, 29, 30
29, 30, 31
30, 31, 32
31, 32, 33
32, 33, 35
*ELEMENT, TYPE=SPRING2, ELSET=H_TL
33, 11, 34
*ELEMENT, TYPE=SPRING2, ELSET=H_TR
34, 22, 35
*MATERIAL, NAME=STEEL
*ELASTIC
2.10000000e+11, 3.00000000e-01
*DENSITY
7.85000000e+03
*BEAM SECTION, MATERIAL=STEEL, ELSET=E_COL, SECTION=RECT
3.00000000e-01, 3.00000000e-01
0., 0., 1.
*BEAM SECTION, MATERIAL=STEEL, ELSET=E_BEAM, SECTION=RECT
2.50000000e-01, 4.00000000e-01
0., 0., 1.
*BOUNDARY
FIXED_BASE, 1, 3, 0.
** Translation continuity at hinges (release only UR3):
*EQUATION
2
34, 1,  1.0, 11, 1, -1.0
*EQUATION
2
34, 2,  1.0, 11, 2, -1.0
*EQUATION
2
34, 3,  1.0, 11, 3, -1.0
*EQUATION
2
35, 1,  1.0, 22, 1, -1.0
*EQUATION
2
35, 2,  1.0, 22, 2, -1.0
*EQUATION
2
35, 3,  1.0, 22, 3, -1.0
** Activate UR3 (DOF6) at hinge nodes: UR3(node) = U1(dummy).
*EQUATION
2
11, 6,  1.0, 36, 1, -1.0
*BOUNDARY
36, 2, 3, 0.
*EQUATION
2
34, 6,  1.0, 37, 1, -1.0
*BOUNDARY
37, 2, 3, 0.
*EQUATION
2
22, 6,  1.0, 38, 1, -1.0
*BOUNDARY
38, 2, 3, 0.
*EQUATION
2
35, 6,  1.0, 39, 1, -1.0
*BOUNDARY
39, 2, 3, 0.
*SPRING, ELSET=H_TL, NONLINEAR
6, 6
-2.00000000e-02, -2.18000000e+05
-2.00000000e-03, -2.00000000e+05
0.00000000e+00, 0.00000000e+00
2.00000000e-03, 2.00000000e+05
2.00000000e-02, 2.18000000e+05
*SPRING, ELSET=H_TR, NONLINEAR
6, 6
-2.00000000e-02, -2.18000000e+05
-2.00000000e-03, -2.00000000e+05
0.00000000e+00, 0.00000000e+00
2.00000000e-03, 2.00000000e+05
2.00000000e-02, 2.18000000e+05
*AMPLITUDE, NAME=EQX
0.00000000e+00, 0.00000000e+00, 2.50000000e-03, 4.62035273e-02, 5.00000000e-03, 9.23494683e-02, 7.50000000e-03, 1.38426489e-01
1.00000000e-02, 1.84423283e-01, 1.25000000e-02, 2.30328577e-01, 1.50000000e-02, 2.76131129e-01, 1.75000000e-02, 3.21819735e-01
2.00000000e-02, 3.67383230e-01, 2.25000000e-02, 4.12810492e-01, 2.50000000e-02, 4.58090443e-01, 2.75000000e-02, 5.03212051e-01
3.00000000e-02, 5.48164336e-01, 3.25000000e-02, 5.92936371e-01, 3.50000000e-02, 6.37517283e-01, 3.75000000e-02, 6.81896258e-01
4.00000000e-02, 7.26062542e-01, 4.25000000e-02, 7.70005444e-01, 4.50000000e-02, 8.13714341e-01, 4.75000000e-02, 8.57178677e-01
5.00000000e-02, 9.00387965e-01, 5.25000000e-02, 9.43331794e-01, 5.50000000e-02, 9.85999829e-01, 5.75000000e-02, 1.02838181e+00
6.00000000e-02, 1.07046756e+00, 6.25000000e-02, 1.11224700e+00, 6.50000000e-02, 1.15371010e+00, 6.75000000e-02, 1.19484695e+00
7.00000000e-02, 1.23564773e+00, 7.25000000e-02, 1.27610269e+00, 7.50000000e-02, 1.31620219e+00, 7.75000000e-02, 1.35593670e+00
8.00000000e-02, 1.39529676e+00, 8.25000000e-02, 1.43427304e+00, 8.50000000e-02, 1.47285629e+00, 8.75000000e-02, 1.51103739e+00
9.00000000e-02, 1.54880731e+00, 9.25000000e-02, 1.58615713e+00, 9.50000000e-02, 1.62307807e+00, 9.75000000e-02, 1.65956142e+00
1.00000000e-01, 1.69559863e+00, 1.02500000e-01, 1.73118124e+00, 1.05000000e-01, 1.76630093e+00, 1.07500000e-01, 1.80094948e+00
1.10000000e-01, 1.83511881e+00, 1.12500000e-01, 1.86880098e+00, 1.15000000e-01, 1.90198814e+00, 1.17500000e-01, 1.93467260e+00
1.20000000e-01, 1.96684680e+00, 1.22500000e-01, 1.99850330e+00, 1.25000000e-01, 2.02963481e+00, 1.27500000e-01, 2.06023416e+00
1.30000000e-01, 2.09029434e+00, 1.32500000e-01, 2.11980845e+00, 1.35000000e-01, 2.14876977e+00, 1.37500000e-01, 2.17717169e+00
1.40000000e-01, 2.20500777e+00, 1.42500000e-01, 2.23227169e+00, 1.45000000e-01, 2.25895730e+00, 1.47500000e-01, 2.28505859e+00
1.50000000e-01, 2.31056969e+00, 1.52500000e-01, 2.33548491e+00, 1.55000000e-01, 2.35979868e+00, 1.57500000e-01, 2.38350561e+00
1.60000000e-01, 2.40660044e+00, 1.62500000e-01, 2.42907810e+00, 1.65000000e-01, 2.45093364e+00, 1.67500000e-01, 2.47216230e+00
1.70000000e-01, 2.49275945e+00, 1.72500000e-01, 2.51272066e+00, 1.75000000e-01, 2.53204162e+00, 1.77500000e-01, 2.55071820e+00
1.80000000e-01, 2.56874644e+00, 1.82500000e-01, 2.58612254e+00, 1.85000000e-01, 2.60284285e+00, 1.87500000e-01, 2.61890392e+00
1.90000000e-01, 2.63430242e+00, 1.92500000e-01, 2.64903522e+00, 1.95000000e-01, 2.66309935e+00, 1.97500000e-01, 2.67649201e+00
** ... 481 like lines cut
*STEP
*STATIC
0.1, 1.0, 1e-8, 0.1
*DLOAD
E_COL,  GRAV, 9.81, 0., -1., 0.
E_BEAM, GRAV, 9.81, 0., -1., 0.
*EL FILE, ELSET=E_COL
ELKE, ELSE
*EL FILE, ELSET=E_BEAM
ELKE, ELSE
*NODE PRINT, NSET=TOP_NODES
U
*END STEP
*STEP, NLGEOM
*DYNAMIC
2.00000000e-03, 5.00000000e+00
*DLOAD
E_COL,  GRAV, 9.81, 0., -1., 0.
E_BEAM, GRAV, 9.81, 0., -1., 0.
*DLOAD, AMPLITUDE=EQX
E_COL,  GRAV, 1.0, 1., 0., 0.
E_BEAM, GRAV, 1.0, 1., 0., 0.
*NODE PRINT, NSET=ROT_DUMMIES, FREQUENCY=1
U
*NODE PRINT, NSET=TOP_NODES, FREQUENCY=10
U
*EL FILE, ELSET=E_COL
ELKE, ELSE
*EL FILE, ELSET=E_BEAM
ELKE, ELSE
*END STEP
