** Portal frame (solids) + M-theta hinges, EQ via *DLOAD GRAV AMPLITUDE
*HEADING
Portal EQ test (v2)

*NODE
1, 0.00000000e+00, 0.00000000e+00, 0.00000000e+00
2, 1.00000000e-01, 0.00000000e+00, 0.00000000e+00
3, 2.00000000e-01, 0.00000000e+00, 0.00000000e+00
4, 3.00000000e-01, 0.00000000e+00, 0.00000000e+00
5, 0.00000000e+00, 1.00000000e-01, 0.00000000e+00
6, 1.00000000e-01, 1.00000000e-01, 0.00000000e+00
7, 2.00000000e-01, 1.00000000e-01, 0.00000000e+00
8, 3.00000000e-01, 1.00000000e-01, 0.00000000e+00
9, 0.00000000e+00, 2.00000000e-01, 0.00000000e+00
10, 1.00000000e-01, 2.00000000e-01, 0.00000000e+00
11, 2.00000000e-01, 2.00000000e-01, 0.00000000e+00
12, 3.00000000e-01, 2.00000000e-01, 0.00000000e+00
13, 0.00000000e+00, 3.00000000e-01, 0.00000000e+00
14, 1.00000000e-01, 3.00000000e-01, 0.00000000e+00
15, 2.00000000e-01, 3.00000000e-01, 0.00000000e+00
16, 3.00000000e-01, 3.00000000e-01, 0.00000000e+00
17, 0.00000000e+00, 4.00000000e-01, 0.00000000e+00
18, 1.00000000e-01, 4.00000000e-01, 0.00000000e+00
19, 2.00000000e-01, 4.00000000e-01, 0.00000000e+00
20, 3.00000000e-01, 4.00000000e-01, 0.00000000e+00
** ... 1104 like lines cut

*ELEMENT, TYPE=C3D8R, ELSET=E_COL_L
1, 1, 5, 6, 2, 125, 129, 130, 126
2, 2, 6, 7, 3, 126, 130, 131, 127
3, 3, 7, 8, 4, 127, 131, 132, 128
4, 5, 9, 10, 6, 129, 133, 134, 130
5, 6, 10, 11, 7, 130, 134, 135, 131
6, 7, 11, 12, 8, 131, 135, 136, 132
7, 9, 13, 14, 10, 133, 137, 138, 134
8, 10, 14, 15, 11, 134, 138, 139, 135
9, 11, 15, 16, 12, 135, 139, 140, 136
10, 13, 17, 18, 14, 137, 141, 142, 138
11, 14, 18, 19, 15, 138, 142, 143, 139
12, 15, 19, 20, 16, 139, 143, 144, 140
13, 17, 21, 22, 18, 141, 145, 146, 142
14, 18, 22, 23, 19, 142, 146, 147, 143
15, 19, 23, 24, 20, 143, 147, 148, 144
16, 21, 25, 26, 22, 145, 149, 150, 146
17, 22, 26, 27, 23, 146, 150, 151, 147
18, 23, 27, 28, 24, 147, 151, 152, 148
19, 25, 29, 30, 26, 149, 153, 154, 150
20, 26, 30, 31, 27, 150, 154, 155, 151
** ... 160 like lines cut
*ELEMENT, TYPE=C3D8R, ELSET=E_COL_R
181, 373, 377, 378, 374, 497, 501, 502, 498
182, 374, 378, 379, 375, 498, 502, 503, 499
183, 375, 379, 380, 376, 499, 503, 504, 500
184, 377, 381, 382, 378, 501, 505, 506, 502
185, 378, 382, 383, 379, 502, 506, 507, 503
186, 379, 383, 384, 380, 503, 507, 508, 504
187, 381, 385, 386, 382, 505, 509, 510, 506
188, 382, 386, 387, 383, 506, 510, 511, 507
189, 383, 387, 388, 384, 507, 511, 512, 508
190, 385, 389, 390, 386, 509, 513, 514, 510
191, 386, 390, 391, 387, 510, 514, 515, 511
192, 387, 391, 392, 388, 511, 515, 516, 512
193, 389, 393, 394, 390, 513, 517, 518, 514
194, 390, 394, 395, 391, 514, 518, 519, 515
195, 391, 395, 396, 392, 515, 519, 520, 516
196, 393, 397, 398, 394, 517, 521, 522, 518
197, 394, 398, 399, 395, 518, 522, 523, 519
198, 395, 399, 400, 396, 519, 523, 524, 520
199, 397, 401, 402, 398, 521, 525, 526, 522
200, 398, 402, 403, 399, 522, 526, 527, 523
** ... 160 like lines cut
*ELEMENT, TYPE=C3D8R, ELSET=E_BEAM
361, 745, 776, 777, 746, 869, 900, 901, 870
362, 746, 777, 778, 747, 870, 901, 902, 871
363, 747, 778, 779, 748, 871, 902, 903, 872
364, 748, 779, 780, 749, 872, 903, 904, 873
365, 749, 780, 781, 750, 873, 904, 905, 874
366, 750, 781, 782, 751, 874, 905, 906, 875
367, 751, 782, 783, 752, 875, 906, 907, 876
368, 752, 783, 784, 753, 876, 907, 908, 877
369, 753, 784, 785, 754, 877, 908, 909, 878
370, 754, 785, 786, 755, 878, 909, 910, 879
371, 755, 786, 787, 756, 879, 910, 911, 880
372, 756, 787, 788, 757, 880, 911, 912, 881
373, 757, 788, 789, 758, 881, 912, 913, 882
374, 758, 789, 790, 759, 882, 913, 914, 883
375, 759, 790, 791, 760, 883, 914, 915, 884
376, 760, 791, 792, 761, 884, 915, 916, 885
377, 761, 792, 793, 762, 885, 916, 917, 886
378, 762, 793, 794, 763, 886, 917, 918, 887
379, 763, 794, 795, 764, 887, 918, 919, 888
380, 764, 795, 796, 765, 888, 919, 920, 889
** ... 160 like lines cut

*ELEMENT, TYPE=SPRING2, ELSET=E_HINGE_L
9001, 1101, 1102
*ELEMENT, TYPE=SPRING2, ELSET=E_HINGE_R
9002, 1103, 1104

*ELSET, ELSET=E_ALL
1, 2, 3, 4, 5, 6, 7, 8, 9, 10, 11, 12, 13, 14, 15, 16
17, 18, 19, 20, 21, 22, 23, 24, 25, 26, 27, 28, 29, 30, 31, 32
33, 34, 35, 36, 37, 38, 39, 40, 41, 42, 43, 44, 45, 46, 47, 48
49, 50, 51, 52, 53, 54, 55, 56, 57, 58, 59, 60, 61, 62, 63, 64
65, 66, 67, 68, 69, 70, 71, 72, 73, 74, 75, 76, 77, 78, 79, 80
81, 82, 83, 84, 85, 86, 87, 88, 89, 90, 91, 92, 93, 94, 95, 96
97, 98, 99, 100, 101, 102, 103, 104, 105, 106, 107, 108, 109, 110, 111, 112
113, 114, 115, 116, 117, 118, 119, 120, 121, 122, 123, 124, 125, 126, 127, 128
129, 130, 131, 132, 133, 134, 135, 136, 137, 138, 139, 140, 141, 142, 143, 144
145, 146, 147, 148, 149, 150, 151, 152, 153, 154, 155, 156, 157, 158, 159, 160
161, 162, 163, 164, 165, 166, 167, 168, 169, 170, 171, 172, 173, 174, 175, 176
177, 178, 179, 180, 181, 182, 183, 184, 185, 186, 187, 188, 189, 190, 191, 192
193, 194, 195, 196, 197, 198, 199, 200, 201, 202, 203, 204, 205, 206, 207, 208
209, 210, 211, 212, 213, 214, 215, 216, 217, 218, 219, 220, 221, 222, 223, 224
225, 226, 227, 228, 229, 230, 231, 232, 233, 234, 235, 236, 237, 238, 239, 240
241, 242, 243, 244, 245, 246, 247, 248, 249, 250, 251, 252, 253, 254, 255, 256
257, 258, 259, 260, 261, 262, 263, 264, 265, 266, 267, 268, 269, 270, 271, 272
273, 274, 275, 276, 277, 278, 279, 280, 281, 282, 283, 284, 285, 286, 287, 288
289, 290, 291, 292, 293, 294, 295, 296, 297, 298, 299, 300, 301, 302, 303, 304
305, 306, 307, 308, 309, 310, 311, 312, 313, 314, 315, 316, 317, 318, 319, 320
** ... 14 like lines cut
*NSET, NSET=COL_L_BASE
1, 2, 3, 4, 125, 126, 127, 128, 249, 250, 251, 252
*NSET, NSET=COL_R_BASE
373, 374, 375, 376, 497, 498, 499, 500, 621, 622, 623, 624
*NSET, NSET=COL_L_TOP
121, 122, 123, 124, 245, 246, 247, 248, 369, 370, 371, 372
*NSET, NSET=COL_R_TOP
493, 494, 495, 496, 617, 618, 619, 620, 741, 742, 743, 744
*NSET, NSET=BEM_L
745, 776, 807, 838, 869, 900, 931, 962, 993, 1024, 1055, 1086
*NSET, NSET=BEM_R
775, 806, 837, 868, 899, 930, 961, 992, 1023, 1054, 1085, 1116
*NSET, NSET=ROT_ALL
1101, 1102, 1103, 1104
*NSET, NSET=REF_TOP
1003

*MATERIAL, NAME=STEEL
*ELASTIC
2.10000000e+11, 0.300000
*DENSITY
7.85000000e+03

*SOLID SECTION, ELSET=E_ALL, MATERIAL=STEEL

*RIGID BODY, NSET=COL_L_TOP, REF NODE=1001, ROT NODE=1101
*RIGID BODY, NSET=BEM_L,     REF NODE=1002, ROT NODE=1102
*RIGID BODY, NSET=COL_R_TOP, REF NODE=1003, ROT NODE=1103
*RIGID BODY, NSET=BEM_R,     REF NODE=1004, ROT NODE=1104

*EQUATION
2
1001, 1, 1.0, 1002, 1, -1.0
*EQUATION
2
1003, 1, 1.0, 1004, 1, -1.0
*EQUATION
2
1001, 2, 1.0, 1002, 2, -1.0
*EQUATION
2
1003, 2, 1.0, 1004, 2, -1.0
*EQUATION
2
1001, 3, 1.0, 1002, 3, -1.0
*EQUATION
2
1003, 3, 1.0, 1004, 3, -1.0

*SPRING, ELSET=E_HINGE_L, NONLINEAR
3, 3
-2.00000000e-02, -2.18000000e+05
-2.00000000e-03, -2.00000000e+05
0.00000000e+00, 0.00000000e+00
2.00000000e-03, 2.00000000e+05
2.00000000e-02, 2.18000000e+05
*SPRING, ELSET=E_HINGE_R, NONLINEAR
3, 3
-2.00000000e-02, -2.18000000e+05
-2.00000000e-03, -2.00000000e+05
0.00000000e+00, 0.00000000e+00
2.00000000e-03, 2.00000000e+05
2.00000000e-02, 2.18000000e+05

*BOUNDARY
COL_L_BASE, 1, 3, 0.
COL_R_BASE, 1, 3, 0.

*AMPLITUDE, NAME=EQX
0.00000000e+00, -1.17011396e-36
1.00000000e-02, -3.75861903e-36
2.00000000e-02, -1.19773187e-35
3.00000000e-02, -3.78635648e-35
4.00000000e-02, -1.18744480e-34
5.00000000e-02, -3.69432271e-34
6.00000000e-02, -1.14021069e-33
7.00000000e-02, -3.49111111e-33
8.00000000e-02, -1.06040046e-32
9.00000000e-02, -3.19523787e-32
1.00000000e-01, -9.55130899e-32
1.10000000e-01, -2.83235939e-31
1.20000000e-01, -8.33218529e-31
1.30000000e-01, -2.43160987e-30
1.40000000e-01, -7.03967480e-30
1.50000000e-01, -2.02178191e-29
1.60000000e-01, -5.76020976e-29
1.70000000e-01, -1.62803534e-28
1.80000000e-01, -4.56467787e-28
1.90000000e-01, -1.26962784e-27
** ... 481 like lines cut

*STEP
*STATIC
*DLOAD
E_ALL, GRAV, 9.81, 0., -1., 0.
*END STEP

*STEP
*DYNAMIC
5.00000000e-03, 5.00000000e+00
*DLOAD, AMPLITUDE=EQX
E_ALL, GRAV, 1.0, 1., 0., 0.

*NODE FILE
U
*NODE PRINT, NSET=ROT_ALL
U
*NODE PRINT, NSET=REF_TOP
U
*END STEP
