** portal_eq.inp generated by ccx_portal_eq_generator v7
*HEADING
Portal EQ (v7)

*NODE
1, 0.00000000e+00, 0.00000000e+00, 0.00000000e+00
2, 1.00000000e-01, 0.00000000e+00, 0.00000000e+00
3, 2.00000000e-01, 0.00000000e+00, 0.00000000e+00
4, 3.00000000e-01, 0.00000000e+00, 0.00000000e+00
5, 0.00000000e+00, 1.00000000e-01, 0.00000000e+00
6, 1.00000000e-01, 1.00000000e-01, 0.00000000e+00
7, 2.00000000e-01, 1.00000000e-01, 0.00000000e+00
8, 3.00000000e-01, 1.00000000e-01, 0.00000000e+00
9, 0.00000000e+00, 2.00000000e-01, 0.00000000e+00
10, 1.00000000e-01, 2.00000000e-01, 0.00000000e+00
11, 2.00000000e-01, 2.00000000e-01, 0.00000000e+00
12, 3.00000000e-01, 2.00000000e-01, 0.00000000e+00
13, 0.00000000e+00, 3.00000000e-01, 0.00000000e+00
14, 1.00000000e-01, 3.00000000e-01, 0.00000000e+00
15, 2.00000000e-01, 3.00000000e-01, 0.00000000e+00
16, 3.00000000e-01, 3.00000000e-01, 0.00000000e+00
17, 0.00000000e+00, 4.00000000e-01, 0.00000000e+00
18, 1.00000000e-01, 4.00000000e-01, 0.00000000e+00
19, 2.00000000e-01, 4.00000000e-01, 0.00000000e+00
20, 3.00000000e-01, 4.00000000e-01, 0.00000000e+00
** ... 1104 like lines cut

*ELEMENT, TYPE=C3D8R, ELSET=E_COL_L
1, 1, 2, 6, 5, 125, 126, 130, 129
2, 2, 3, 7, 6, 126, 127, 131, 130
3, 3, 4, 8, 7, 127, 128, 132, 131
4, 5, 6, 10, 9, 129, 130, 134, 133
5, 6, 7, 11, 10, 130, 131, 135, 134
6, 7, 8, 12, 11, 131, 132, 136, 135
7, 9, 10, 14, 13, 133, 134, 138, 137
8, 10, 11, 15, 14, 134, 135, 139, 138
9, 11, 12, 16, 15, 135, 136, 140, 139
10, 13, 14, 18, 17, 137, 138, 142, 141
11, 14, 15, 19, 18, 138, 139, 143, 142
12, 15, 16, 20, 19, 139, 140, 144, 143
13, 17, 18, 22, 21, 141, 142, 146, 145
14, 18, 19, 23, 22, 142, 143, 147, 146
15, 19, 20, 24, 23, 143, 144, 148, 147
16, 21, 22, 26, 25, 145, 146, 150, 149
17, 22, 23, 27, 26, 146, 147, 151, 150
18, 23, 24, 28, 27, 147, 148, 152, 151
19, 25, 26, 30, 29, 149, 150, 154, 153
20, 26, 27, 31, 30, 150, 151, 155, 154
** ... 160 like lines cut
*ELEMENT, TYPE=C3D8R, ELSET=E_COL_R
181, 373, 374, 378, 377, 497, 498, 502, 501
182, 374, 375, 379, 378, 498, 499, 503, 502
183, 375, 376, 380, 379, 499, 500, 504, 503
184, 377, 378, 382, 381, 501, 502, 506, 505
185, 378, 379, 383, 382, 502, 503, 507, 506
186, 379, 380, 384, 383, 503, 504, 508, 507
187, 381, 382, 386, 385, 505, 506, 510, 509
188, 382, 383, 387, 386, 506, 507, 511, 510
189, 383, 384, 388, 387, 507, 508, 512, 511
190, 385, 386, 390, 389, 509, 510, 514, 513
191, 386, 387, 391, 390, 510, 511, 515, 514
192, 387, 388, 392, 391, 511, 512, 516, 515
193, 389, 390, 394, 393, 513, 514, 518, 517
194, 390, 391, 395, 394, 514, 515, 519, 518
195, 391, 392, 396, 395, 515, 516, 520, 519
196, 393, 394, 398, 397, 517, 518, 522, 521
197, 394, 395, 399, 398, 518, 519, 523, 522
198, 395, 396, 400, 399, 519, 520, 524, 523
199, 397, 398, 402, 401, 521, 522, 526, 525
200, 398, 399, 403, 402, 522, 523, 527, 526
** ... 160 like lines cut
*ELEMENT, TYPE=C3D8R, ELSET=E_BEAM
361, 745, 746, 777, 776, 869, 870, 901, 900
362, 746, 747, 778, 777, 870, 871, 902, 901
363, 747, 748, 779, 778, 871, 872, 903, 902
364, 748, 749, 780, 779, 872, 873, 904, 903
365, 749, 750, 781, 780, 873, 874, 905, 904
366, 750, 751, 782, 781, 874, 875, 906, 905
367, 751, 752, 783, 782, 875, 876, 907, 906
368, 752, 753, 784, 783, 876, 877, 908, 907
369, 753, 754, 785, 784, 877, 878, 909, 908
370, 754, 755, 786, 785, 878, 879, 910, 909
371, 755, 756, 787, 786, 879, 880, 911, 910
372, 756, 757, 788, 787, 880, 881, 912, 911
373, 757, 758, 789, 788, 881, 882, 913, 912
374, 758, 759, 790, 789, 882, 883, 914, 913
375, 759, 760, 791, 790, 883, 884, 915, 914
376, 760, 761, 792, 791, 884, 885, 916, 915
377, 761, 762, 793, 792, 885, 886, 917, 916
378, 762, 763, 794, 793, 886, 887, 918, 917
379, 763, 764, 795, 794, 887, 888, 919, 918
380, 764, 765, 796, 795, 888, 889, 920, 919
** ... 160 like lines cut

*ELEMENT, TYPE=SPRING2, ELSET=E_HINGE_L
541, 1118, 1120
*ELEMENT, TYPE=SPRING2, ELSET=E_HINGE_R
542, 1122, 1124

*ELSET, ELSET=E_ALL
1, 2, 3, 4, 5, 6, 7, 8, 9, 10, 11, 12, 13, 14, 15, 16
17, 18, 19, 20, 21, 22, 23, 24, 25, 26, 27, 28, 29, 30, 31, 32
33, 34, 35, 36, 37, 38, 39, 40, 41, 42, 43, 44, 45, 46, 47, 48
49, 50, 51, 52, 53, 54, 55, 56, 57, 58, 59, 60, 61, 62, 63, 64
65, 66, 67, 68, 69, 70, 71, 72, 73, 74, 75, 76, 77, 78, 79, 80
81, 82, 83, 84, 85, 86, 87, 88, 89, 90, 91, 92, 93, 94, 95, 96
97, 98, 99, 100, 101, 102, 103, 104, 105, 106, 107, 108, 109, 110, 111, 112
113, 114, 115, 116, 117, 118, 119, 120, 121, 122, 123, 124, 125, 126, 127, 128
129, 130, 131, 132, 133, 134, 135, 136, 137, 138, 139, 140, 141, 142, 143, 144
145, 146, 147, 148, 149, 150, 151, 152, 153, 154, 155, 156, 157, 158, 159, 160
161, 162, 163, 164, 165, 166, 167, 168, 169, 170, 171, 172, 173, 174, 175, 176
177, 178, 179, 180, 181, 182, 183, 184, 185, 186, 187, 188, 189, 190, 191, 192
193, 194, 195, 196, 197, 198, 199, 200, 201, 202, 203, 204, 205, 206, 207, 208
209, 210, 211, 212, 213, 214, 215, 216, 217, 218, 219, 220, 221, 222, 223, 224
225, 226, 227, 228, 229, 230, 231, 232, 233, 234, 235, 236, 237, 238, 239, 240
241, 242, 243, 244, 245, 246, 247, 248, 249, 250, 251, 252, 253, 254, 255, 256
257, 258, 259, 260, 261, 262, 263, 264, 265, 266, 267, 268, 269, 270, 271, 272
273, 274, 275, 276, 277, 278, 279, 280, 281, 282, 283, 284, 285, 286, 287, 288
289, 290, 291, 292, 293, 294, 295, 296, 297, 298, 299, 300, 301, 302, 303, 304
305, 306, 307, 308, 309, 310, 311, 312, 313, 314, 315, 316, 317, 318, 319, 320
** ... 14 like lines cut
*NSET, NSET=COL_L_BASE
1, 2, 3, 4, 125, 126, 127, 128, 249, 250, 251, 252
*NSET, NSET=COL_R_BASE
373, 374, 375, 376, 497, 498, 499, 500, 621, 622, 623, 624
*NSET, NSET=COL_L_TOP
121, 122, 123, 124, 245, 246, 247, 248, 369, 370, 371, 372
*NSET, NSET=COL_R_TOP
493, 494, 495, 496, 617, 618, 619, 620, 741, 742, 743, 744
*NSET, NSET=BEM_L
745, 776, 807, 838, 869, 900, 931, 962, 993, 1024, 1055, 1086
*NSET, NSET=BEM_R
775, 806, 837, 868, 899, 930, 961, 992, 1023, 1054, 1085, 1116
*NSET, NSET=REF_L_COL
1117
*NSET, NSET=ROT_L_COL
1118
*NSET, NSET=REF_L_BEM
1119
*NSET, NSET=ROT_L_BEM
1120
*NSET, NSET=REF_R_COL
1121
*NSET, NSET=ROT_R_COL
1122
*NSET, NSET=REF_R_BEM
1123
*NSET, NSET=ROT_R_BEM
1124
*NSET, NSET=ROT_ALL
1118, 1120, 1122, 1124
*NSET, NSET=REF_TOP
1121

*MATERIAL, NAME=STEEL
*ELASTIC
2.10000000e+11, 0.300000
*DENSITY
7.85000000e+03

*SOLID SECTION, ELSET=E_ALL, MATERIAL=STEEL

*RIGID BODY, NSET=COL_L_TOP, REF NODE=1117, ROT NODE=1118
*RIGID BODY, NSET=BEM_L,     REF NODE=1119, ROT NODE=1120
*RIGID BODY, NSET=COL_R_TOP, REF NODE=1121, ROT NODE=1122
*RIGID BODY, NSET=BEM_R,     REF NODE=1123, ROT NODE=1124

*EQUATION
2
1117, 1, 1.0, 1119, 1, -1.0
*EQUATION
2
1121, 1, 1.0, 1123, 1, -1.0
*EQUATION
2
1117, 2, 1.0, 1119, 2, -1.0
*EQUATION
2
1121, 2, 1.0, 1123, 2, -1.0
*EQUATION
2
1117, 3, 1.0, 1119, 3, -1.0
*EQUATION
2
1121, 3, 1.0, 1123, 3, -1.0

*SPRING, ELSET=E_HINGE_L, NONLINEAR
3, 3
-2.00000000e-02, -2.18000000e+05
-2.00000000e-03, -2.00000000e+05
0.00000000e+00, 0.00000000e+00
2.00000000e-03, 2.00000000e+05
2.00000000e-02, 2.18000000e+05
*SPRING, ELSET=E_HINGE_R, NONLINEAR
3, 3
-2.00000000e-02, -2.18000000e+05
-2.00000000e-03, -2.00000000e+05
0.00000000e+00, 0.00000000e+00
2.00000000e-03, 2.00000000e+05
2.00000000e-02, 2.18000000e+05

*BOUNDARY
COL_L_BASE, 1, 3, 0.
COL_R_BASE, 1, 3, 0.

*AMPLITUDE, NAME=EQX
0.00000000e+00, -1.17011396e-36
1.00000000e-02, -3.75861903e-36
2.00000000e-02, -1.19773187e-35
3.00000000e-02, -3.78635648e-35
4.00000000e-02, -1.18744480e-34
5.00000000e-02, -3.69432271e-34
6.00000000e-02, -1.14021069e-33
7.00000000e-02, -3.49111111e-33
8.00000000e-02, -1.06040046e-32
9.00000000e-02, -3.19523787e-32
1.00000000e-01, -9.55130899e-32
1.10000000e-01, -2.83235939e-31
1.20000000e-01, -8.33218529e-31
1.30000000e-01, -2.43160987e-30
1.40000000e-01, -7.03967480e-30
1.50000000e-01, -2.02178191e-29
1.60000000e-01, -5.76020976e-29
1.70000000e-01, -1.62803534e-28
1.80000000e-01, -4.56467787e-28
1.90000000e-01, -1.26962784e-27
** ... 481 like lines cut

*STEP
*STATIC
*DLOAD
E_ALL, GRAV, 9.81, 0., -1., 0.
*EL PRINT, ELSET=E_ALL
ENER
*END STEP

*STEP
*DYNAMIC
5.00000000e-03, 5.00000000e+00
*DLOAD, AMPLITUDE=EQX
E_ALL, GRAV, 1.0, 1., 0., 0.

*EL PRINT, ELSET=E_ALL
ENER
*NODE FILE
U
*NODE PRINT, NSET=ROT_ALL
U
*NODE PRINT, NSET=REF_TOP
U
*END STEP
